<?xml version="1.0" encoding="UTF-8"?>

<!-- generated on Thu Dec  1 13:52:13 2016 by SUMO duarouter Version 0.25.0D
<?xml version="1.0" encoding="UTF-8"?>

<configuration xmlns:xsi="http://www.w3.org/2001/XMLSchema-instance" xsi:noNamespaceSchemaLocation="http://sumo.dlr.de/xsd/duarouterConfiguration.xsd">

    <input>
        <net-file value="./topology/line.150.roads.xml"/>
        <additional-files value="./topology/line.150.randomTrips.xml"/>
        <trip-files value="./topology/line.150.trips.xml"/>
    </input>

    <output>
        <output-file value="./topology/line.150.routes.xml"/>
    </output>

    <processing>
        <ignore-errors value="true"/>
    </processing>

    <time>
        <begin value="0.0"/>
        <end value="15.0"/>
    </time>

    <report>
        <no-warnings value="true"/>
        <no-step-log value="true"/>
    </report>

</configuration>
-->

<routes xmlns:xsi="http://www.w3.org/2001/XMLSchema-instance" xsi:noNamespaceSchemaLocation="http://sumo.dlr.de/xsd/routes_file.xsd">
    <vehicle id="0" depart="0.00">
        <route edges="-202#1 -192#15 -208#0 -218#16 -218#17 -204#1 --192#37 --192#36 --192#35 --206#1 -218#21 -198#1 -192#34 -192#35 -192#36 -192#37 -192#38 -192#39 -192#40 -192#41 -192#42 -192#43 -192#44 -224#0 --218#10 --218#9 --218#8 --218#7 --218#6 --236#0"/>
    </vehicle>
    <vehicle id="1" depart="0.10">
        <route edges="--230#1 -218#10 -218#11 -218#12 -218#13 -218#14 -218#15 -218#16 -212#1 --192#38 --192#37 --192#36 --192#35 --206#1 -218#21 -218#22 -218#23 -218#24 -218#25 -218#26 -218#27 -192#28 -188#0 -188#1 --192#26 --192#25 -186#0"/>
    </vehicle>
    <vehicle id="2" depart="0.20">
        <route edges="--192#54 --192#53 --192#52 --192#51 --242#1 -218#5 --236#0 -192#6 -192#7 -192#8 -192#9 -192#10 -192#11 -192#12 -192#13 -210#0 -218#14 --202#0 --192#40 --208#1 -218#16"/>
    </vehicle>
    <vehicle id="3" depart="0.30">
        <route edges="--224#1 --218#10 --218#9 --218#8 --234#0 --192#7 --192#6 --192#5 -242#0 --218#4 --238#0 --192#3 --192#2 -240#0 -240#1 -192#54 -192#55"/>
    </vehicle>
    <vehicle id="4" depart="0.40">
        <route edges="-224#0 -218#11 -218#12 -218#13 -218#14 -218#15 -218#16 -218#17 -218#18 --214#0 --192#36 --192#35 --206#1 --218#20 --218#19 --218#18 --218#17 --218#16 --218#15 --218#14 -210#1 -192#42 -192#43 -192#44 -192#45 -192#46 -192#47 -192#48 -192#49 -192#50 -192#51 --238#1 -218#4 -218#5 -218#6 -218#7 -218#8 -218#9 -218#10 -218#11 -218#12 -218#13 -218#14 -218#15 -218#16 -218#17 -218#18 -218#19 -218#20 -218#21 -218#22 -190#1"/>
    </vehicle>
    <vehicle id="5" depart="0.50">
        <route edges="-192#19 -200#0 --218#19 --218#18 --218#17 --218#16 --218#15 --218#14 -210#1 -192#42 -192#43 -192#44 -192#45 -192#46 -192#47 -192#48 -192#49 -192#50 -192#51 -192#52 -192#53 --240#1 -218#2 -218#3 -218#4 -218#5 -218#6 --228#0"/>
    </vehicle>
    <vehicle id="6" depart="0.60">
        <route edges="-194#1 -192#30 -192#31 -192#32 -192#33 -192#34 -192#35 -192#36 -192#37 -192#38 -192#39 -192#40 -192#41 -192#42 -192#43 -192#44 -192#45 -192#46 -192#47 -192#48 -192#49 -192#50 -192#51 -192#52 -220#0 --218#2 --218#1 --218#0 -244#1 --192#54 --192#53 --192#52 --192#51 --192#50 --192#49 --192#48 --192#47 --192#46 --230#1 -218#10 -224#1 -192#11 -192#12 -192#13 -192#14 -192#15 -192#16 -212#0 --218#16"/>
    </vehicle>
    <vehicle id="7" depart="0.70">
        <route edges="--194#0 --192#25 --192#24 --192#23 --192#22 -198#0 --218#21 --206#0 -192#21 -192#22 -192#23 -196#0 -218#24 -186#1 --192#30 --194#1 --218#25 --218#24 --218#23 --218#22 --218#21 --218#20 --218#19 --218#18 --218#17 --218#16 --218#15 --218#14 --210#0 --192#13 --192#12 --192#11 --192#10 --192#9 --192#8 --192#7 --192#6 --192#5 --192#4 --192#3 --192#2 -240#0"/>
    </vehicle>
    <vehicle id="8" depart="0.80">
        <route edges="--230#0 -192#10 -192#11 -192#12 -192#13 -210#0 -210#1 --192#41 --192#40 --192#39 --192#38 --204#1 --204#0 --192#17 -212#0 --218#16 --208#0 -192#16 -192#17 -204#0"/>
    </vehicle>
    <vehicle id="9" depart="0.90">
        <route edges="--244#0 -192#1 -192#2 -192#3 -192#4 -192#5 -192#6 -192#7 -192#8 -192#9 -192#10 -192#11 -192#12 -192#13 -210#0 -218#14 -218#15 -218#16 -218#17 -218#18 -218#19 -218#20 --206#0 --192#20 --192#19 --192#18 -204#0 --218#17 --212#0 --192#16 --192#15 --202#1 --218#14 -210#1 -192#42 -192#43 -192#44 -192#45 -192#46 -192#47 -192#48 -228#0"/>
    </vehicle>
    <vehicle id="10" depart="1.00">
        <route edges="-218#15 -208#1 -192#40 -192#41 -192#42 -192#43 -192#44 -192#45 -192#46 -192#47 -192#48 -192#49 -192#50 -192#51 -192#52 -220#0 --218#2 --218#1 --218#0 --244#0 -192#1 -192#2 -192#3 -192#4 -192#5 -192#6 -192#7 -192#8 -192#9 -192#10 -192#11 -192#12 -192#13 -210#0 -218#14 -218#15 -218#16 -218#17 -218#18 --214#0 --192#36 --192#35 --192#34 --192#33 --192#32 --192#31 --192#30 --192#29 --192#28"/>
    </vehicle>
    <vehicle id="11" depart="1.10">
        <route edges="--240#0 -192#2 -192#3 -192#4 -192#5 -192#6 -192#7 -192#8 -192#9 -192#10 -192#11 -192#12 -192#13 -210#0 -218#14 -218#15 -218#16 -218#17 -218#18 -218#19 -218#20 -218#21 -198#1 -192#34 -192#35 -192#36 -192#37 -192#38 -192#39 -192#40 -192#41 -192#42 -192#43 -192#44 -192#45 -192#46 -192#47 -192#48 -192#49 -192#50 -192#51 -192#52 -220#0 --218#2 --218#1 --218#0 -244#1 --192#54 --192#53 --192#52 --192#51 --192#50 --192#49 --192#48 --192#47 --192#46 --192#45 --192#44 --192#43 --192#42 --210#1 -218#14 -218#15 -218#16 -218#17"/>
    </vehicle>
    <vehicle id="12" depart="1.20">
        <route edges="--216#0 -192#1 -192#2 -192#3 -192#4 -192#5 -192#6 -192#7 -192#8 -192#9 -192#10 -192#11 -192#12 -192#13 -192#14 -192#15 -192#16 -192#17 -192#18 --214#1 --218#18 --218#17 --212#0 --192#16 -208#0 --218#15 --218#14 --218#13 --218#12 --218#11 --218#10 --218#9 --218#8 --218#7 -228#1"/>
    </vehicle>
    <vehicle id="13" depart="1.30">
        <route edges="--190#1 --218#22 --218#21 --218#20 --218#19 --218#18 --218#17 --218#16 --218#15 --218#14 --210#0 --192#13 --192#12 --192#11 --224#1 -218#11 -218#12 -218#13 -218#14 -218#15 -218#16 -218#17 -218#18 -214#1 --192#18 --192#17 --192#16 --192#15 --192#14 --192#13 --192#12 -226#0"/>
    </vehicle>
    <vehicle id="14" depart="1.40">
        <route edges="-192#27 --218#27 --218#26 --218#25 --218#24 --218#23 --218#22 --218#21 --206#0 --192#20 --192#19 --192#18 -204#0 -218#18 -218#19 -218#20 -218#21 -218#22 -218#23 --196#0"/>
    </vehicle>
    <vehicle id="15" depart="1.50">
        <route edges="--212#1 --218#16 --218#15 --218#14 -210#1 -192#42 -192#43 -192#44 -192#45 -192#46 -192#47 -192#48 -192#49 -192#50 -192#51 -192#52 -192#53 --240#1 -218#2 -218#3 --238#0 -192#4 -192#5 -192#6 -192#7 -192#8 -222#0 -218#9 --230#0 -192#10 -192#11 -226#0"/>
    </vehicle>
    <vehicle id="16" depart="1.60">
        <route edges="-238#1 --192#51 --192#50 --192#49 --192#48 --192#47 --192#46 --230#1 -218#10 -224#1 --192#10 --192#9 --192#8 --192#7 --192#6 -236#0 --218#5 -242#1 -192#51 --238#1"/>
    </vehicle>
    <vehicle id="17" depart="1.70">
        <route edges="--188#1 --218#26 --218#25 --218#24 --218#23 --218#22 --218#21 --218#20 --218#19 -214#1 --192#18 -204#0 --218#17 --218#16 --218#15 --218#14 --218#13 --218#12 --218#11 --224#0 -192#45 -192#46 -192#47 -192#48 -192#49 -192#50 -192#51 -192#52 -192#53 -192#54"/>
    </vehicle>
    <vehicle id="18" depart="1.80">
        <route edges="-242#0 -218#5 -218#6 -218#7 -218#8 -218#9 -218#10 -218#11 -218#12 -218#13 -218#14 -218#15 -218#16 -218#17 --204#0 -192#18 -192#19 -192#20 -206#0 --218#20 -200#1 -192#36 -192#37 -192#38 -192#39 -192#40 -202#0 --218#14 --218#13 --218#12 --218#11 --218#10 --218#9 --218#8 -234#1 --192#47"/>
    </vehicle>
    <vehicle id="19" depart="1.90">
        <route edges="--204#1 --218#17 --218#16 --218#15 --218#14 --218#13 --218#12 --218#11 --218#10 -230#1 --192#45 --192#44 --192#43 --192#42 --192#41 --192#40 --192#39 --192#38 --192#37 --192#36 --192#35 --206#1 --218#20 --218#19 --218#18 --218#17 --218#16 --218#15 --218#14 --210#0 --192#13 --192#12 --192#11 --192#10 --192#9 --192#8 --192#7 --192#6 -236#0"/>
    </vehicle>
    <vehicle id="20" depart="2.00">
        <route edges="--234#1 -218#8 -222#1 --192#46 --230#1 -218#10 -218#11 -218#12 -218#13 -218#14 -218#15 -218#16 -218#17 -218#18 -218#19 -200#1 -192#36 -192#37 -192#38 -192#39 -192#40 -192#41 -192#42 -192#43 -192#44 -192#45 -192#46 --222#1"/>
    </vehicle>
    <vehicle id="21" depart="2.10">
        <route edges="-206#0 --218#20 --218#19 --218#18 --218#17 --218#16 --208#0 --192#15 --202#1 -218#15 -218#16 -218#17 -218#18 --214#0 --192#36 --192#35 --206#1 --218#20 --218#19 --218#18 --218#17 --212#0"/>
    </vehicle>
    <vehicle id="22" depart="2.20">
        <route edges="--214#0 --192#36 --192#35 --206#1 --206#0 --192#20 --192#19 --192#18 -204#0 -204#1 -192#38 -192#39 -192#40 -202#0 --218#14 --210#0 --192#13 --192#12 --192#11 --192#10 --192#9 --192#8 --192#7 --192#6 --192#5 --192#4 --192#3 --192#2 --192#1 --192#0"/>
    </vehicle>
    <vehicle id="23" depart="2.30">
        <route edges="-204#0 --218#17 --218#16 --218#15 --218#14 --218#13 --218#12 --218#11 --218#10 --218#9 --218#8 --218#7 --218#6 --218#5 --218#4 -238#1 --192#51 --192#50 --192#49 --192#48 --192#47 --192#46 --192#45 --192#44 --192#43 --192#42 --210#1 -218#14 -218#15 -218#16 -218#17 -218#18 -218#19 -218#20 -218#21 -218#22 -218#23 -218#24 -186#1 -192#31 -192#32 -190#0 --218#22 --218#21 --218#20 --200#0"/>
    </vehicle>
    <vehicle id="24" depart="2.40">
        <route edges="--226#0 --192#11 --192#10 --192#9 --192#8 --192#7 --192#6 --192#5 --192#4 --192#3 --220#1 -218#3 -218#4 -218#5 -218#6 -218#7 --234#0 --192#7 --192#6 --192#5 --192#4 --192#3 --192#2 --192#1 -216#0"/>
    </vehicle>
    <vehicle id="25" depart="2.50">
        <route edges="-192#27 --218#27 --218#26 --218#25 --218#24 --218#23 --218#22 --218#21 --218#20 --218#19 --218#18 --218#17 --218#16 --218#15 --218#14 -210#1 -192#42 -192#43 -192#44 -192#45 -192#46 -192#47 -192#48 -192#49 -192#50 -192#51 --238#1 -218#4 -218#5 -218#6 -218#7 -218#8 -218#9 -218#10 --224#0 --192#44 --192#43 --192#42 --192#41 --192#40 --192#39 --192#38 --192#37 --192#36 --192#35 --192#34 --192#33 -190#0 --218#22 --218#21 --218#20 --218#19 --218#18 --218#17 --218#16 --218#15 --218#14 --218#13 --218#12 --218#11 --218#10 --218#9 --218#8 --218#7 --218#6 -236#1"/>
    </vehicle>
    <vehicle id="26" depart="2.60">
        <route edges="-232#1 --192#42 --192#41 --192#40 --192#39 --192#38 --192#37 --192#36 --192#35 --206#1 --218#20 --218#19 --218#18 --218#17 --218#16 --218#15 --218#14 -210#1 -192#42 -192#43 -192#44 -192#45 -192#46 --222#1 -218#9 -218#10 -218#11 -218#12 -218#13 -218#14 -218#15 -218#16 -218#17 -218#18 -214#1"/>
    </vehicle>
    <vehicle id="27" depart="2.70">
        <route edges="-212#1 -192#39 -192#40 -202#0 --218#14 --210#0 --192#13 --192#12 --192#11 --192#10 --192#9 --192#8 --192#7 --228#1 -218#7 -218#8 -218#9 -218#10 -218#11 -218#12 -218#13 -218#14 -218#15 -218#16 -218#17 -218#18 -218#19 -200#1 -192#36 -214#0 --218#18 --218#17 --218#16 --218#15 --218#14"/>
    </vehicle>
    <vehicle id="28" depart="2.80">
        <route edges="--238#1 -218#4 -218#5 -218#6 -218#7 -218#8 -218#9 -218#10 --224#0 --192#44 --226#1 -218#12 -218#13 -218#14 -218#15 -218#16 -218#17 -218#18 -218#19 -218#20 -218#21 -218#22 -218#23 -218#24 -186#1 -192#31 -192#32 -190#0 --218#22 --218#21 --206#0 --192#20 --192#19 --192#18 --192#17 --192#16 --192#15 --192#14"/>
    </vehicle>
    <vehicle id="29" depart="2.90">
        <route edges="--240#1 -218#2 -218#3 -218#4 -218#5 -218#6 -218#7 -218#8 -218#9 -218#10 -218#11 -218#12 -218#13 -218#14 -218#15 -218#16 -218#17 --204#0 -192#18 -192#19 -192#20 -192#21 -192#22 -192#23 -192#24 -192#25 -194#0 --218#25 --218#24 --218#23 --218#22 --218#21 --218#20 --218#19 --218#18 --218#17 --218#16 --218#15 --218#14 --218#13 --218#12 --218#11 --218#10 --218#9 --218#8 --218#7 --218#6 --236#0 --192#5 -242#0 -242#1 --192#50 --236#1"/>
    </vehicle>
    <vehicle id="30" depart="3.00">
        <route edges="--198#0 --192#21 --192#20 -200#0 --218#19 --214#0 -192#37 -192#38 --212#1 -218#17 -218#18 --214#0 --192#36 --192#35 --206#1"/>
    </vehicle>
    <vehicle id="31" depart="3.10">
        <route edges="--218#17 --218#16 --218#15 --218#14 --210#0 --192#13 --192#12 --192#11 --192#10 --192#9 --192#8 --192#7 --192#6 --192#5 --192#4 --192#3 --192#2 -240#0 -218#2 --220#0 -192#53 --240#1 -218#2 -218#3 -218#4 -218#5 -218#6 -228#1"/>
    </vehicle>
    <vehicle id="32" depart="3.20">
        <route edges="-192#1 -192#2 -192#3 -192#4 -192#5 -192#6 -192#7 -192#8 -192#9 -192#10 -192#11 -192#12 -232#0 -218#13 -218#14 -218#15 -218#16 -218#17 --204#0 -192#18 --214#1 --218#18 --218#17 --218#16 --218#15 --218#14 -210#1 -192#42 --232#1"/>
    </vehicle>
    <vehicle id="33" depart="3.30">
        <route edges="-228#1 -192#7 -234#0 -218#8 -218#9 -218#10 --224#0 --192#44 --192#43 --192#42 --210#1 -218#14 -218#15 -218#16 -212#1 --192#38 --192#37 --192#36 --192#35 --192#34 --192#33 --192#32 --192#31 --192#30 --192#29 --192#28"/>
    </vehicle>
    <vehicle id="34" depart="3.40">
        <route edges="-196#1 -192#32 -192#33 -192#34 -192#35 -192#36 -214#0 --218#18 --218#17 --218#16 --218#15 --218#14 --210#0 --192#13 --192#12 --192#11 --192#10 --192#9 --192#8 --192#7 --192#6 --192#5 --192#4 -238#0 --218#3 --218#2 --240#0 -192#2 -192#3 -192#4 -242#0 -218#5 -218#6 -218#7 -218#8 -218#9 -218#10 -218#11 -218#12 -218#13 --210#0 --192#13"/>
    </vehicle>
    <vehicle id="35" depart="3.50">
        <route edges="-238#1 --192#51 --242#1 -218#5 --236#0 -192#6 -192#7 -192#8 -192#9 -192#10 -192#11 -192#12 -232#0 --218#12 --218#11 -224#1 --192#10 -230#0 -230#1 -192#46 -192#47 -192#48"/>
    </vehicle>
    <vehicle id="36" depart="3.60">
        <route edges="-220#1 -192#3 -192#4 -192#5 -192#6 -192#7 -192#8 -192#9 -192#10 -192#11 -192#12 -192#13 -210#0 -218#14 -218#15 -218#16 -218#17 -218#18 -218#19 -218#20 -206#1 -192#35 -192#36 -192#37 -192#38 -192#39 -192#40 -192#41 -192#42 -192#43 -192#44 -224#0 --218#10 --218#9 -222#1 --192#46 --230#1 -218#10 -218#11 -226#1"/>
    </vehicle>
    <vehicle id="37" depart="3.70">
        <route edges="--188#1 --218#26 --218#25 --218#24 --218#23 --218#22 --218#21 --218#20 --218#19 --218#18 --218#17 --218#16 --218#15 --218#14 --218#13 --232#0 -192#13 -210#0 -210#1 -192#42 --232#1 -218#13 -218#14 -218#15 -218#16 -218#17 -218#18 -218#19 -218#20 -206#1 -192#35"/>
    </vehicle>
    <vehicle id="38" depart="3.80">
        <route edges="--236#1 --236#0 -192#6 -192#7 -192#8 -192#9 -192#10 --224#1 -218#11 -218#12 -218#13 -218#14 -218#15 -218#16 -218#17 --204#0 -192#18 -192#19 -192#20 -192#21 -192#22 --190#1 --218#22 --218#21 --206#0 --192#20 --192#19 --192#18 --192#17 -212#0"/>
    </vehicle>
    <vehicle id="39" depart="3.90">
        <route edges="--232#0 --192#12 -226#0 --218#11 --218#10 --230#0 -192#10 -192#11 -192#12 -192#13 -192#14 -192#15 -192#16 -192#17 -192#18 -192#19 -192#20 -206#0 -218#21"/>
    </vehicle>
    <vehicle id="40" depart="4.00">
        <route edges="-190#1 --192#22 --192#21 --192#20 --192#19 --192#18 -204#0 --218#17 --218#16 --218#15 --218#14 --218#13 --218#12 --218#11 --218#10 --218#9 --218#8 --218#7 -228#1 -192#7 -192#8 -192#9 -192#10 -192#11 -192#12 -192#13 -210#0 -218#14 -218#15 -218#16 -218#17 -218#18 -218#19 -218#20 -206#1 -192#35 -192#36 -214#0 --218#18 --218#17 --218#16 --218#15"/>
    </vehicle>
    <vehicle id="41" depart="4.10">
        <route edges="-208#0 -218#16 -218#17 --204#0 -192#18 -192#19 -192#20 -206#0 -206#1 -192#35 -192#36 -192#37 -192#38 -192#39 -192#40 -202#0 --218#14 -210#1 --192#41 --192#40"/>
    </vehicle>
    <vehicle id="42" depart="4.20">
        <route edges="--226#0 -192#12 -192#13 -210#0 -218#14 -218#15 -218#16 --212#0 -192#17 -192#18 --214#1 --218#18 --218#17 --218#16 --218#15 --218#14 --218#13 --218#12 --218#11 --218#10 --218#9 --218#8 --218#7 --218#6 --218#5 --218#4 --218#3 --218#2 --218#1 --216#0"/>
    </vehicle>
    <vehicle id="43" depart="4.30">
        <route edges="--200#0 --192#19 --192#18 -204#0 --218#17 --218#16 --218#15 --218#14 --218#13 --218#12 --218#11 --218#10 --218#9 --218#8 --218#7 --218#6 --218#5 --218#4 --218#3 --218#2 --218#1 -216#1 --192#54 --192#53 --192#52 --192#51 --192#50 --192#49 --192#48 --192#47 --192#46 --192#45 --192#44 --192#43 --192#42 --210#1 -218#14 -218#15 -218#16 -218#17 -218#18 -218#19 -200#1 -192#36 -192#37 -192#38 -192#39 -192#40 -192#41 -192#42 -192#43 -192#44 -192#45 -192#46 -192#47 -192#48 -192#49 -192#50 -192#51 -192#52 -220#0 --218#2 --240#0"/>
    </vehicle>
    <vehicle id="44" depart="4.40">
        <route edges="-230#1 --192#45 --192#44 --192#43 --192#42 --210#1 -218#14 -218#15 -218#16 -218#17 -218#18 -218#19 -218#20 -218#21 -218#22 -218#23 -218#24 -218#25 -218#26 -188#1 --192#26 -194#0 --218#25 --218#24 --218#23 --218#22 --218#21 --218#20 --218#19 --214#0 --192#36 --192#35 --206#1 -218#21 -218#22 -218#23 -196#1"/>
    </vehicle>
    <vehicle id="45" depart="4.50">
        <route edges="-226#1 --192#43 --192#42 --210#1 --218#13 -232#1 -192#43 --226#1 -218#12 -218#13 -218#14 -218#15 -218#16 -218#17 -218#18 -218#19 -218#20 -218#21 -218#22 -218#23 -218#24 -186#1 -192#31 -192#32 -192#33 -192#34 --206#1"/>
    </vehicle>
    <vehicle id="46" depart="4.60">
        <route edges="--234#1 -218#8 -218#9 -218#10 -218#11 -218#12 -232#1 -192#43 -192#44 -224#0 --218#10 --218#9 -222#1 --192#46 --230#1 --230#0 -192#10"/>
    </vehicle>
    <vehicle id="47" depart="4.70">
        <route edges="--232#0 -192#13 -210#0 -218#14 -218#15 -218#16 -218#17 -218#18 --214#0 --192#36 --192#35 --206#1 --218#20 -200#1 -192#36 -192#37 -192#38 --212#1 -218#17 -218#18 -218#19 -218#20 -218#21 -218#22 -190#1 --192#22"/>
    </vehicle>
    <vehicle id="48" depart="4.80">
        <route edges="-190#1 --192#22 --192#21 --192#20 --192#19 --192#18 -204#0 --218#17 --218#16 --218#15 --218#14 -210#1 -192#42 -192#43 --226#1 -218#12 -218#13 -218#14 -218#15 -218#16 -218#17 -218#18 --214#0 --192#36 --192#35 --192#34 --192#33 -190#0 --218#22 --218#21 --218#20 --218#19 --218#18 --218#17 --218#16 --218#15 --218#14 --218#13 --218#12 --218#11 --218#10 --230#0"/>
    </vehicle>
    <vehicle id="49" depart="4.90">
        <route edges="-226#1 --192#43 --192#42 --192#41 --192#40 --208#1 --218#15 -202#1 -192#15 -192#16 -192#17 -192#18 -192#19 -192#20 -206#0 -218#21 -218#22 --190#0 --192#32 --196#1"/>
    </vehicle>
    <vehicle id="50" depart="5.00">
        <route edges="-192#55 -218#0 -218#1 -218#2 -220#1 -192#3 -192#4 -242#0 -242#1 -192#51 --238#1 -218#4 -242#1 --192#50"/>
    </vehicle>
    <vehicle id="51" depart="5.10">
        <route edges="--220#0 --192#52 --192#51 --242#1 -218#5 --236#0 -192#6 -192#7 -234#0 -218#8 -218#9 -218#10 -224#1 --192#10 -230#0 -218#10 --224#0 --192#44 --192#43 --192#42 --192#41 --192#40 --208#1"/>
    </vehicle>
    <vehicle id="52" depart="5.20">
        <route edges="-192#27 --218#27 --218#26 --218#25 --218#24 --218#23 --218#22 --218#21 --218#20 --218#19 --218#18 --218#17 --218#16 --218#15 --218#14 -210#1 -192#42 -192#43 -192#44 -192#45 -192#46 -192#47 -192#48 -192#49 -192#50 -192#51 -192#52 -192#53 -192#54 --216#1 -218#1 -218#2 -218#3 -238#1 --192#51 --192#50 --192#49 --192#48 --192#47"/>
    </vehicle>
    <vehicle id="53" depart="5.30">
        <route edges="--212#1 -218#17 -218#18 -218#19 -218#20 -218#21 -218#22 --190#0 -192#33 -192#34 -192#35 -192#36 -192#37 -192#38 -192#39 -192#40 -192#41 -192#42 -192#43 -192#44 -192#45 -192#46 -192#47 -192#48 -192#49 -192#50 -192#51 -192#52 -220#0 -218#3 -218#4 -218#5 -218#6 -218#7 -218#8 -218#9 -218#10 -218#11 -218#12 -218#13 -218#14 -218#15 -218#16 -218#17 -218#18 -218#19 -218#20 -218#21 -218#22 -218#23 -218#24 -218#25 -218#26 -188#1"/>
    </vehicle>
    <vehicle id="54" depart="5.40">
        <route edges="-218#8 -218#9 -218#10 -218#11 -218#12 -218#13 -218#14 -218#15 -218#16 -218#17 -218#18 -218#19 -218#20 -218#21 -198#1 -192#34 -192#35 -192#36 -214#0 --218#18 --218#17 --212#0 --192#16 -208#0 -218#16 -218#17 -218#18 -218#19 -218#20 -218#21 -218#22 -218#23 -218#24 -186#1 -192#31"/>
    </vehicle>
    <vehicle id="55" depart="5.50">
        <route edges="--224#0 --192#44 --192#43 --192#42 --210#1 -218#14 -218#15 -218#16 -218#17 --204#0 -192#18 -192#19 -192#20 -192#21 -192#22 -192#23 -192#24 -192#25 -192#26 -192#27 --218#27 --218#26 --218#25 --218#24 --218#23 --218#22 --218#21 --218#20 --218#19 --218#18 --218#17 --218#16 --218#15 --218#14 --218#13 --218#12 --218#11 --224#0 --192#44 --192#43 --192#42 --210#1 -218#14 -218#15 -208#1"/>
    </vehicle>
    <vehicle id="56" depart="5.60">
        <route edges="-208#0 --218#15 --218#14 --218#13 --218#12 --218#11 --218#10 --218#9 --218#8 --218#7 --218#6 --218#5 --218#4 --218#3 -220#1 -192#3 -192#4 -242#0 -242#1 -192#51 --238#1 --238#0 -192#4 -192#5 -192#6 -192#7 -192#8 -192#9 -192#10 -192#11 -192#12 -192#13 -192#14 -192#15 -192#16 -192#17 -204#0"/>
    </vehicle>
    <vehicle id="57" depart="5.70">
        <route edges="-192#27 --218#27 --218#26 --218#25 --218#24 --196#0 --192#23 --192#22 --192#21 -206#0 --218#20 --218#19 --218#18 --218#17 --218#16 --218#15 --218#14 --210#0 --192#13 --192#12 --192#11 --192#10 --192#9 --192#8 --192#7 --192#6 --192#5 --192#4 -238#0 -238#1"/>
    </vehicle>
    <vehicle id="58" depart="5.80">
        <route edges="-198#1 -192#34 -192#35 --200#1 -218#20 -206#1 -192#35 -192#36 -192#37 -192#38 -192#39 -192#40 -192#41 -192#42 -192#43 -192#44 -192#45 -192#46 --222#1 -218#9 --230#0 -192#10 --224#1 --218#10"/>
    </vehicle>
    <vehicle id="59" depart="5.90">
        <route edges="--192#27 --192#26 --192#25 --192#24 --192#23 --192#22 --192#21 --192#20 --192#19 --192#18 -204#0 --218#17 --218#16 --218#15 --218#14 --218#13 --218#12 --218#11 --218#10 --218#9 --218#8 --218#7 --218#6 --218#5 -242#1 --192#50 --192#49 --192#48 --192#47 --192#46 --230#1 -218#10 -218#11 -218#12 -218#13 -210#1 -192#42 -192#43 -192#44 -192#45 -192#46 -192#47 -192#48 -192#49 -192#50 -192#51 -192#52 -220#0 -218#3"/>
    </vehicle>
    <vehicle id="60" depart="6.00">
        <route edges="--192#6 -236#0 -218#6 -228#1 -192#7 -192#8 -192#9 -192#10 --224#1 -218#11 -218#12 -218#13 -218#14 -218#15 -218#16 -218#17 --204#0 -192#18 --214#1 --218#18 --218#17 --218#16 --218#15 --218#14 --218#13 --218#12 --218#11 --218#10 --230#0"/>
    </vehicle>
    <vehicle id="61" depart="6.10">
        <route edges="--192#35 --206#1 --218#20 --218#19 --218#18 --218#17 --218#16 --218#15 --218#14 --210#0 --192#13 --192#12 --192#11 --192#10 --192#9 --192#8 --192#7 --192#6 --192#5 --192#4 --192#3 --192#2 -240#0 -240#1 -192#54 --216#1 -218#1 --240#0 --192#1 -216#0"/>
    </vehicle>
    <vehicle id="62" depart="6.20">
        <route edges="-218#4 -218#5 -218#6 -218#7 -218#8 -218#9 -218#10 -218#11 -218#12 -218#13 -218#14 --202#0 -192#41 -192#42 -192#43 -192#44 -192#45 -192#46 -192#47 -192#48 -192#49 --236#1 --236#0 -192#6 -192#7 -192#8 -192#9 -192#10 -192#11"/>
    </vehicle>
    <vehicle id="63" depart="6.30">
        <route edges="-234#0 -218#8 -218#9 -218#10 -218#11 -218#12 -218#13 -218#14 -218#15 -218#16 -218#17 -218#18 -218#19 -218#20 -218#21 -218#22 -218#23 --196#0 -192#24 -186#0 -218#25 -218#26 -188#1 --192#26 --192#25 --192#24 --192#23 --192#22"/>
    </vehicle>
    <vehicle id="64" depart="6.40">
        <route edges="-194#1 -192#30 -192#31 -192#32 -192#33 -192#34 -192#35 -192#36 -214#0 --218#18 --218#17 --218#16 --218#15 --218#14 --210#0 --192#13 --192#12 --192#11 --192#10 --192#9 --192#8 -234#0 -218#8 -218#9 -218#10 -218#11 -218#12 -218#13 -218#14 -218#15 -218#16 -218#17 -218#18 -218#19 -218#20 -218#21 -218#22 -218#23 -218#24 -218#25 -218#26 -218#27 -192#28 -188#0 --218#26 --218#25 --218#24 --218#23 -190#1"/>
    </vehicle>
    <vehicle id="65" depart="6.50">
        <route edges="-220#0 -218#3 -218#4 -218#5 -218#6 -218#7 -218#8 -218#9 -218#10 -218#11 -218#12 -218#13 -218#14 -218#15 -218#16 -218#17 -218#18 -218#19 -218#20 -206#1 -192#35 -192#36 -192#37 -192#38 -192#39 -192#40 -192#41 -192#42 -192#43 -192#44 -192#45 -192#46 -192#47 --234#1 -218#8 -218#9 -218#10 -218#11 -218#12 -218#13 -218#14 -218#15 -218#16 -218#17 -218#18 -218#19 -218#20 -218#21 -218#22 -218#23 -218#24 -218#25 -218#26 -218#27 --192#27"/>
    </vehicle>
    <vehicle id="66" depart="6.60">
        <route edges="-192#11 -192#12 -192#13 -210#0 -218#14 -218#15 -218#16 -218#17 -218#18 -218#19 -218#20 -218#21 -218#22 -218#23 -218#24 -218#25 -218#26 -188#1 --192#26 -194#0 --218#25 --218#24 --218#23 --218#22 --218#21 -206#1 -192#35 -192#36 -192#37 -192#38 --212#1 -218#17 --204#0 -192#18 -192#19 -192#20 -192#21 -192#22 --190#1"/>
    </vehicle>
    <vehicle id="67" depart="6.70">
        <route edges="--218#16 --218#15 --218#14 --210#0 --192#13 --192#12 --192#11 --192#10 --192#9 --192#8 --192#7 --192#6 --192#5 --192#4 --192#3 --220#1 -218#3 --238#0 -192#4 -192#5 -192#6 -192#7 -192#8 -192#9 -192#10 -192#11 -192#12 -192#13 -210#0 -218#14 -218#15 -218#16 -218#17 -218#18 -218#19 -218#20 -218#21 -218#22 -218#23 -218#24 -218#25 -218#26 -218#27 -192#28"/>
    </vehicle>
    <vehicle id="68" depart="6.80">
        <route edges="--192#48 --192#47 --192#46 --192#45 --192#44 --192#43 --192#42 --192#41 -202#0 -218#15 -218#16 -218#17 -218#18 -218#19 -218#20 -218#21 -198#1"/>
    </vehicle>
    <vehicle id="69" depart="6.90">
        <route edges="-192#24 -186#0 --218#24 --218#23 --218#22 --218#21 --218#20 --218#19 --218#18 --218#17 --218#16 --218#15 --218#14 --210#0 --192#13 --192#12 --192#11 --192#10 --192#9 --192#8 --192#7 --192#6 --192#5 --192#4 --192#3 --220#1 -218#3 -218#4 -218#5 -218#6 -218#7 -218#8 -218#9 -218#10 -218#11 -218#12 -218#13 -218#14 --202#0 -192#41 -192#42 --232#1 --218#12 -226#1"/>
    </vehicle>
    <vehicle id="70" depart="7.00">
        <route edges="--234#1 --234#0 --192#7 --192#6 -236#0 -218#6 -218#7 -218#8 -218#9 -218#10 -218#11 -218#12 -218#13 -218#14 -218#15 -218#16 -218#17 -218#18 -218#19 -218#20 -206#1 -192#35 -192#36 -214#0 --218#18 --218#17 --218#16 --218#15 --218#14 --210#0 --192#13 --192#12 --192#11 --192#10 --192#9 --192#8 --192#7 --192#6 --192#5 --192#4 --192#3 --192#2 --192#1 --192#0"/>
    </vehicle>
    <vehicle id="71" depart="7.10">
        <route edges="-210#0 --218#13 --232#0 --192#12 --192#11 --192#10 --192#9 --192#8 --192#7 --228#1 --218#6 --218#5 -242#1 -192#51 -192#52 -192#53 -192#54 -192#55 -218#0 -218#1 -218#2 -218#3 --238#0 -192#4 -192#5 -192#6 -192#7 -192#8 -192#9 -192#10 -192#11 -192#12 -232#0"/>
    </vehicle>
    <vehicle id="72" depart="7.20">
        <route edges="-230#0 --218#9 --218#8 --218#7 --218#6 --218#5 --242#0 -192#5 -192#6 -192#7 -192#8 -192#9 -230#0 --218#9 --222#0 -192#9 -192#10 -192#11 -192#12 -192#13 -210#0 -218#14 -218#15 -218#16 -218#17 -218#18 -218#19 -218#20 -218#21 -218#22 -218#23 -218#24 -218#25 -218#26"/>
    </vehicle>
    <vehicle id="73" depart="7.30">
        <route edges="-192#23 -196#0 --218#23 --218#22 --218#21 --218#20 --218#19 --218#18 --218#17 --218#16 --218#15 --218#14 -210#1 -192#42 -192#43 -192#44 -192#45 -192#46 -192#47 --234#1 -218#8 -218#9 -218#10 -218#11 -218#12 -218#13 -218#14 -218#15 -218#16 -218#17 --204#0 -192#18 -192#19 -192#20 -192#21 -192#22 --190#1 --218#22 --218#21 --218#20 --218#19 --218#18 --218#17 --218#16 --218#15 --218#14 --210#0"/>
    </vehicle>
    <vehicle id="74" depart="7.40">
        <route edges="--192#15 --192#14 --192#13 --192#12 --192#11 --192#10 --192#9 --192#8 --192#7 --192#6 --192#5 --192#4 -238#0 --218#3 --218#2 --240#0 --192#1 -216#0 -218#1 -218#2 -218#3 -218#4 -218#5 -218#6 -218#7 -218#8 -218#9 -218#10 -218#11 -218#12 -218#13 -218#14 -218#15 -218#16 -218#17 -218#18 -218#19 -218#20 -218#21 -218#22 --190#0"/>
    </vehicle>
    <vehicle id="75" depart="7.50">
        <route edges="-186#0 --218#24 --218#23 --218#22 --218#21 --218#20 --218#19 --218#18 --218#17 --218#16 --218#15 --218#14 --210#0 --192#13 -232#0 --218#12 --218#11 --218#10 --218#9 --218#8 --218#7 --218#6 --218#5 --242#0 --192#4 -238#0 -218#4 -218#5 -218#6 -218#7 -218#8 -218#9 -218#10 -218#11 -218#12 -218#13 -218#14 -218#15 -218#16 -218#17 -218#18 -218#19 -218#20 -218#21 -218#22 -218#23 -218#24 -218#25 -218#26 -218#27 --192#27"/>
    </vehicle>
    <vehicle id="76" depart="7.60">
        <route edges="--232#0 -192#13 -192#14 -192#15 -192#16 -192#17 -192#18 -192#19 -200#0 --218#19 --218#18 --218#17 --218#16 --218#15 --218#14 --218#13 --218#12 --218#11 --218#10 --218#9 --218#8 --218#7 --218#6 --218#5 --218#4 --218#3 --218#2 -240#1 --192#53 --192#52 --192#51 --192#50 --192#49 --192#48 --192#47 --192#46 --192#45 --192#44 --192#43 --192#42 --192#41 --192#40 --192#39 --192#38 --192#37 --192#36 --192#35 --192#34 --198#1"/>
    </vehicle>
    <vehicle id="77" depart="7.70">
        <route edges="-234#0 --218#7 -228#1 --192#6 --192#5 -242#0 -218#5 --236#0 -192#6 -192#7 -192#8 -192#9 -192#10 -192#11 -192#12 -192#13 -210#0 --218#13 --218#12 --218#11 --218#10 --218#9 --218#8 -234#1"/>
    </vehicle>
    <vehicle id="78" depart="7.80">
        <route edges="--188#1 --218#26 --218#25 --218#24 --218#23 --218#22 --218#21 -206#1 -192#35 -192#36 -192#37 -192#38 -192#39 --208#1 -218#16 -218#17 -218#18 --214#0 --192#36 --192#35 --192#34 --192#33 --192#32 --192#31 --192#30 --194#1 -218#26 -188#1"/>
    </vehicle>
    <vehicle id="79" depart="7.90">
        <route edges="--218#15 -202#1 --192#14 --192#13 --192#12 --192#11 --192#10 --192#9 --192#8 --192#7 --192#6 --192#5 --192#4 --192#3 --220#1 -218#3 --238#0 --192#3 --192#2"/>
    </vehicle>
    <vehicle id="80" depart="8.00">
        <route edges="--198#1 --198#0 -192#22 --190#1 --190#0 --192#32 --196#1 --218#23 --218#22 --218#21 --218#20 --218#19 --218#18 --218#17 --218#16 --218#15 --202#0"/>
    </vehicle>
    <vehicle id="81" depart="8.10">
        <route edges="-238#0 -218#4 -218#5 -218#6 -218#7 -218#8 -218#9 -218#10 -218#11 -218#12 -218#13 -218#14 -218#15 -218#16 -218#17 -218#18 -214#1 --192#18 --192#17 -212#0 -218#17 -204#1 -192#38 -192#39 -192#40 -192#41 -192#42 -192#43 --226#1 -218#12"/>
    </vehicle>