<?xml version="1.0" encoding="UTF-8"?>

<!-- generated on Thu Dec  1 14:58:01 2016 by SUMO duarouter Version 0.25.0D
<?xml version="1.0" encoding="UTF-8"?>

<configuration xmlns:xsi="http://www.w3.org/2001/XMLSchema-instance" xsi:noNamespaceSchemaLocation="http://sumo.dlr.de/xsd/duarouterConfiguration.xsd">

    <input>
        <net-file value="./topology/line.200.roads.xml"/>
        <additional-files value="./topology/line.200.randomTrips.xml"/>
        <trip-files value="./topology/line.200.trips.xml"/>
    </input>

    <output>
        <output-file value="./topology/line.200.routes.xml"/>
    </output>

    <processing>
        <ignore-errors value="true"/>
    </processing>

    <time>
        <begin value="0.0"/>
        <end value="20.0"/>
    </time>

    <report>
        <no-warnings value="true"/>
        <no-step-log value="true"/>
    </report>

</configuration>
-->

<routes xmlns:xsi="http://www.w3.org/2001/XMLSchema-instance" xsi:noNamespaceSchemaLocation="http://sumo.dlr.de/xsd/routes_file.xsd">
    <vehicle id="0" depart="0.00">
        <route edges="-188#27 -214#1 -214#2 -214#3 -214#4 -214#5 -214#6 -214#7 -214#8 -214#9 -214#10 -214#11 -214#12 -214#13 -214#14 -214#15 -214#16 -214#17 -214#18 -214#19 -214#20 -214#21 -214#22 -214#23 -214#24 -214#25 -190 -188#2 --182 -214#25 -214#26 --184 -188#1 -188#2 -188#3 -188#4 -188#5 -188#6 -188#7 -188#8 -188#9 -188#10 -188#11 -188#12 -188#13 -188#14 -188#15 --222"/>
    </vehicle>
    <vehicle id="1" depart="0.10">
        <route edges="-208 --188#10 --200 --214#17 --214#16 --214#15 --214#14 --214#13 -228 --188#14 --206 -214#14 -214#15 -204"/>
    </vehicle>
    <vehicle id="2" depart="0.20">
        <route edges="-230 --188#19 --188#18 --188#17 --188#16 --188#15 --188#14 --206 -214#14 -214#15 -214#16 -214#17 -214#18 -214#19 -214#20 -214#21 -194 -188#6 -188#7 -188#8 -188#9 -188#10 -188#11 -188#12 -188#13 -188#14 -188#15 -188#16 -188#17 -188#18 -188#19 -188#20 -188#21 -188#22 -188#23 -188#24 -188#25 --236 -214#2 --216 --188#24 --188#23 --188#22 --188#21 --188#20 --188#19 --188#18 --188#17 --188#16 --188#15 --188#14 --188#13 --188#12 --188#11 --188#10 --188#9 --188#8 --188#7 --188#6"/>
    </vehicle>
    <vehicle id="3" depart="0.30">
        <route edges="-208 -188#11 -188#12 -188#13 -188#14 -188#15 -188#16 -220 --214#10 --214#9 --214#8 --214#7 --214#6 --214#5 -238 --188#22 --188#21 --188#20 --188#19 --188#18 --188#17 --188#16 --188#15 --188#14 --206 -214#14 -214#15 -214#16 -214#17 -214#18 -214#19 -214#20 -214#21 -214#22 -214#23 -214#24 -214#25 -190 --188#1 --188#0"/>
    </vehicle>
    <vehicle id="4" depart="0.40">
        <route edges="--206 -214#14 -214#15 -214#16 -214#17 -200 -188#10 --208 --214#16 --214#15 --198 -188#13 -188#14 -188#15 -188#16 -188#17 -188#18 -188#19 -188#20 -188#21 -188#22 -188#23 -188#24 -216"/>
    </vehicle>
    <vehicle id="5" depart="0.50">
        <route edges="-216 --214#2 --214#1 -212 --188#26 --236 -214#2 --216 --188#24 --188#23 --238 -214#5 -214#6 -214#7 -230 --188#19 --188#18 --188#17 --188#16 --188#15 --188#14 --188#13 --188#12 --188#11 --188#10 --188#9 --188#8 --188#7 --188#6 --188#5 -186"/>
    </vehicle>
    <vehicle id="6" depart="0.60">
        <route edges="--224 --188#20 --188#19 --188#18 --188#17 --188#16 --188#15 --188#14 --206 -214#14 -214#15 -214#16 -214#17 -214#18 -214#19 -214#20 -202 -188#7 -188#8 -188#9 -188#10 -188#11 -188#12 -188#13 -188#14 -188#15 --222"/>
    </vehicle>
    <vehicle id="7" depart="0.70">
        <route edges="-232 --188#21 -224 --214#6 --214#5 -238 -188#23 -188#24 -188#25 -188#26 -188#27 -214#1 -214#2 --216 --188#24 --188#23 --188#22 --188#21 --188#20 --188#19 --188#18 --188#17 --188#16 --188#15 --188#14 --188#13 --188#12 --188#11 --188#10 --188#9 --188#8 --188#7 --188#6 --188#5 -186 --214#22"/>
    </vehicle>
    <vehicle id="8" depart="0.80">
        <route edges="-202 -188#7 -188#8 -188#9 -188#10 -188#11 -188#12 -188#13 -188#14 -188#15 -188#16 -188#17 -188#18 -188#19 -188#20 -188#21 -188#22 -188#23 -188#24 -188#25 -188#26 --212 -214#1 -214#2 --216"/>
    </vehicle>
    <vehicle id="9" depart="0.90">
        <route edges="--206 -214#14 -214#15 -214#16 -214#17 -200 -188#10 -188#11 -188#12 -188#13 -188#14 -188#15 -188#16 -188#17 -188#18 -188#19 -188#20 -188#21 -188#22 -188#23 -188#24 -216 --214#2 --214#1 --214#0 --188#26 --188#25 --188#24 --188#23 --188#22 --188#21 --188#20 --188#19 --188#18 --188#17 --188#16 --188#15 --188#14 --206 -214#14 -214#15 -214#16 -214#17 -214#18 -214#19 -214#20 -214#21 -214#22 -214#23 -214#24 -214#25 -214#26"/>
    </vehicle>
    <vehicle id="10" depart="1.00">
        <route edges="--204 --214#15 --214#14 -206 -188#14 -188#15 -188#16 -188#17 -188#18 -188#19 -188#20 -188#21 -188#22 -188#23 -188#24 -188#25 -188#26 --212 -214#1 -214#2 --216 --188#24 --188#23 --188#22 --188#21 --188#20 --188#19 --188#18 --188#17 --188#16 --188#15 --188#14 --188#13 -198 --214#14 --214#13 -228"/>
    </vehicle>
    <vehicle id="11" depart="1.10">
        <route edges="--214#24 --214#23 --214#22 --214#21 --214#20 -196 --188#7 --202 --214#20 --214#19 --214#18 --214#17 --214#16 --214#15 --214#14 -206 -188#14 -188#15 -188#16 -188#17 -188#18 -188#19 -188#20 -188#21 -188#22 -188#23 -188#24 -188#25 --236 -214#2 --216 --188#24 --188#23 --188#22 --188#21 --188#20 --188#19 --188#18 --188#17 --188#16 --188#15 --188#14 --188#13 --188#12 --188#11 --188#10 --200"/>
    </vehicle>
    <vehicle id="12" depart="1.20">
        <route edges="-214#18 --210 -188#9 -188#10 -188#11 -188#12 -188#13 -188#14 -188#15 -188#16 -188#17 -188#18 -188#19 -188#20 -188#21 -188#22 -188#23 -188#24 -216 --214#2 --214#1 --214#0 --188#26 --188#25 --188#24 --188#23 --188#22 --188#21 --188#20 --188#19 --188#18 --188#17 --188#16 --188#15 --188#14 --188#13 --188#12 --188#11 --188#10 --188#9 --188#8 --188#7 --202 --214#20 -196 -188#8 -188#9 -188#10"/>
    </vehicle>
    <vehicle id="13" depart="1.30">
        <route edges="-198 -214#15 -214#16 -208 --188#10 --188#9 -210 --214#18 --214#17 --214#16 --214#15 --214#14 -206 -188#14 -188#15 -188#16 -188#17 -188#18 -188#19 -188#20 -224 --214#6 --214#5 -238 --188#22 --232"/>
    </vehicle>
    <vehicle id="14" depart="1.40">
        <route edges="-188#7 -188#8 -188#9 -188#10 -188#11 -188#12 -188#13 -188#14 -188#15 -188#16 -220 --214#10 --214#9 -218 -188#19 -188#20 -188#21 -188#22 -188#23 -188#24 -216 --214#2 --214#1 -212 --188#26 --188#25 --188#24 --188#23 --188#22 --188#21 --188#20 --188#19 --188#18 --188#17 --188#16 --188#15 --188#14 --206 -214#14 -214#15 -214#16 -214#17 -214#18 -214#19 -214#20 -214#21 -214#22 -214#23 -214#24 -214#25"/>
    </vehicle>
    <vehicle id="15" depart="1.50">
        <route edges="--188#0 --214#26 --214#25 --214#24 -192 -188#4 -188#5 -188#6 --202 --214#20 --214#19 --214#18 --214#17 --214#16 -204 -188#12 -198 --214#14"/>
    </vehicle>
    <vehicle id="16" depart="1.60">
        <route edges="--214#11 --220 --188#16 --188#15 --188#14 --206 -214#14 -214#15 -214#16 -214#17 -214#18 -214#19 -214#20 -214#21 -214#22 --186 --188#4 --188#3 --188#2 --190 --214#25 --214#24 --214#23 --214#22 --214#21 --214#20 --214#19 --214#18 --214#17 --214#16 --214#15 --214#14 --214#13 --214#12 --214#11 --214#10 --214#9 --214#8 --214#7 --214#6 --214#5 --214#4 --214#3 --214#2 --214#1 --214#0"/>
    </vehicle>
    <vehicle id="17" depart="1.70">
        <route edges="-232 -188#22 -188#23 --234 -214#4 -214#5 -214#6 -214#7 -214#8 -214#9 -214#10 --220 --188#16 --188#15 --188#14 --188#13 --188#12 --188#11 --188#10 --188#9 --188#8 --188#7 --188#6 --188#5 --188#4 --188#3 --188#2 --188#1 -184 --214#26 --214#25 --214#24 --214#23 --214#22 --214#21 --214#20 --214#19 --214#18 --214#17 --214#16 --214#15 --214#14 --214#13 --214#12 --214#11 --220"/>
    </vehicle>
    <vehicle id="18" depart="1.80">
        <route edges="-188#1 -188#2 -188#3 -188#4 -188#5 -188#6 -188#7 -188#8 -210 --214#18 --214#17 --214#16 --214#15 --214#14 --214#13 --214#12 --214#11 --220 -188#17 -188#18 --218 -214#9 -226 --188#17 --188#16 --188#15 --188#14 --206 -214#14 -214#15 -214#16 -214#17 -214#18 -214#19 -214#20 -214#21 -214#22 -214#23 -214#24 -214#25 -214#26 --184"/>
    </vehicle>
    <vehicle id="19" depart="1.90">
        <route edges="-208 -188#11 -188#12 -198 --214#14 --214#13 -228 --188#14 --206 --214#13 --214#12 --214#11 --214#10 --214#9 --214#8 --214#7 --214#6 --214#5 --214#4 --214#3 --216 --188#24 --188#23 --188#22 --188#21 --188#20 --188#19 --188#18 --188#17 --188#16 --188#15 --188#14 --188#13 --188#12 --188#11 --188#10 --188#9 --188#8 --188#7 --188#6 --188#5 --188#4 --188#3 --188#2 --188#1 --188#0"/>
    </vehicle>
    <vehicle id="20" depart="2.00">
        <route edges="--212 -214#1 -214#2 --216 --188#24 --188#23 --188#22 --188#21 --188#20 --188#19 --188#18 --188#17 --188#16 --188#15 --188#14 --188#13 --188#12 --188#11 --188#10 --188#9 --188#8 --196 --214#19 --214#18 --214#17 --214#16 --214#15 --214#14 --214#13 --214#12 -222"/>
    </vehicle>
    <vehicle id="21" depart="2.10">
        <route edges="--214#0 --188#26 --188#25 --188#24 --188#23 --188#22 --188#21 --188#20 --188#19 --188#18 --188#17 --188#16 --188#15 --188#14 --188#13 --188#12 --188#11 --188#10 --188#9 --188#8 --188#7 --188#6 --194 --214#21 --214#20 --214#19 --214#18 --214#17 --214#16 --214#15 --214#14"/>
    </vehicle>
    <vehicle id="22" depart="2.20">
        <route edges="--214#5 -238 --188#22 --188#21 --188#20 --188#19 --188#18 --188#17 --188#16 --188#15 --188#14 --188#13 --188#12 --188#11 --188#10 --188#9 --188#8 --188#7 --188#6 --188#5 --188#4 --188#3 --182 --214#24 --214#23 --214#22 --214#21 --214#20 --214#19 --214#18 --214#17 --214#16 --214#15 --214#14 -206 --188#13 --188#12 --204 -214#16 -214#17 -200"/>
    </vehicle>
    <vehicle id="23" depart="2.30">
        <route edges="--198 --188#12 --188#11 --208 --214#16 -204 -188#12 -188#13 --206 -214#14 -214#15 -214#16 -214#17 -214#18 -214#19 -214#20 -214#21 -214#22 -214#23 -214#24 -214#25 -214#26 -214#27"/>
    </vehicle>
    <vehicle id="24" depart="2.40">
        <route edges="--214#10 --214#9 --214#8 --214#7 --214#6 --214#5 --214#4 -234 --188#23 --188#22 --188#21 --188#20 --188#19 --188#18 --188#17 --188#16 --188#15 --188#14 --206 -214#14 -214#15 -214#16 -214#17 -214#18 -214#19 -214#20 -202 --188#6 --188#5 --188#4 --188#3 --188#2 --190"/>
    </vehicle>
    <vehicle id="25" depart="2.50">
        <route edges="--214#7 --224 --188#20 --188#19 --188#18 --188#17 --188#16 --222 --214#11 --214#10 --214#9 --214#8 --214#7 --214#6 --214#5 --214#4 --214#3 --214#2 -236 --188#25 --188#24 --188#23 --188#22 --188#21 --188#20 --188#19 --188#18 --188#17 --188#16 --188#15 --188#14 --188#13 --188#12 --188#11 --188#10 --188#9 -210"/>
    </vehicle>
    <vehicle id="26" depart="2.60">
        <route edges="--188#11 --188#10 --188#9 --188#8 --188#7 --202 -214#21 -214#22 -214#23 -214#24 -182 -188#3 -188#4 -188#5 -188#6 -188#7 -188#8 -188#9 -188#10 -188#11 -188#12 -188#13 -188#14 -188#15 -188#16 -220 --214#10 --214#9 -218"/>
    </vehicle>
    <vehicle id="27" depart="2.70">
        <route edges="--230 -214#8 -214#9 -214#10 --220 --188#16 --188#15 --188#14 --188#13 --188#12 --188#11 --188#10 --188#9 --188#8 --188#7 --188#6 --188#5 --188#4 --188#3 --188#2 --190 --214#25 --214#24 --214#23 --214#22 --214#21 --214#20 --214#19 --214#18 --214#17 --214#16 --214#15 --214#14 -206 -188#14 -188#15 -188#16 -188#17 -188#18 -188#19 -188#20 -224 -214#7 -214#8 -214#9 -214#10 --220 --188#16 --188#15 --188#14 --188#13 --188#12 --188#11 --188#10 --188#9 --188#8 --196 --214#19"/>
    </vehicle>
    <vehicle id="28" depart="2.80">
        <route edges="-188#16 -220 -214#11 -222 --188#15 --188#14 --206 -214#14 -214#15 -214#16 -214#17 -214#18 -214#19 -214#20 -202 -188#7 -188#8 -188#9 -188#10 -188#11 -188#12 -188#13 -188#14 -188#15 -188#16 -188#17 -188#18 --218"/>
    </vehicle>
    <vehicle id="29" depart="2.90">
        <route edges="-190 -188#2 -188#3 -188#4 -188#5 -188#6 -188#7 -188#8 -188#9 -188#10 -188#11 -188#12 -188#13 -188#14 -188#15 -188#16 -220 --214#10 -226 --188#17 --188#16 --188#15 --188#14 --206 -214#14 -214#15 -214#16 -214#17 -200 -188#10 --208 -214#17 -214#18 -214#19 -214#20 -202 -188#7"/>
    </vehicle>
    <vehicle id="30" depart="3.00">
        <route edges="-188#5 -188#6 -188#7 -188#8 -188#9 -188#10 -188#11 -188#12 -188#13 -188#14 -188#15 -188#16 -220 -214#11 -214#12 -214#13 -214#14 -214#15 -214#16 -214#17 -214#18 --210 --188#8 --188#7 --188#6 --194 --214#21 --214#20 --214#19 --214#18 --214#17 --214#16 --214#15 --214#14 --214#13 --214#12 --214#11 --214#10 --214#9 --214#8 --214#7 --214#6 --214#5 --214#4 --214#3 --214#2 --214#1"/>
    </vehicle>
    <vehicle id="31" depart="3.10">
        <route edges="--188#2 --190 --214#25 --214#24 -192 -188#4 -186 -214#23 -214#24 -214#25 -214#26 -214#27"/>
    </vehicle>
    <vehicle id="32" depart="3.20">
        <route edges="-218 --188#18 --226 --214#9 --214#8 -230 --188#19 --188#18 --188#17 --188#16 --188#15 --188#14 --188#13 --188#12 --188#11 --188#10 --188#9 --188#8 --188#7 --188#6 --188#5 -186 --214#22 -194"/>
    </vehicle>
    <vehicle id="33" depart="3.30">
        <route edges="-188#21 --232 -214#6 -214#7 -214#8 -214#9 -214#10 -214#11 -214#12 -214#13 -214#14 -214#15 -214#16 -214#17 -214#18 -214#19 -196 -188#8 -188#9 -188#10 -188#11 -188#12 -188#13 -188#14 -188#15 -188#16 -188#17 -188#18 -188#19 -188#20 -188#21 -188#22 -188#23 -188#24 -216 --214#2 --214#1 -212 --188#26 --188#25 --188#24 --188#23 --188#22 --188#21 --188#20 --188#19 --188#18 --188#17 --188#16 --188#15 --188#14 --188#13 --188#12 --188#11 --188#10 --188#9 --188#8 --188#7 --188#6 --188#5 --188#4"/>
    </vehicle>
    <vehicle id="34" depart="3.40">
        <route edges="--202 --214#20 --214#19 --214#18 --214#17 --214#16 --214#15 --214#14 --214#13 --214#12 -222 --188#15 --188#14 --188#13 --188#12 --188#11 --188#10 --188#9 --188#8 --188#7 --202 --214#20 --214#19 --214#18"/>
    </vehicle>
    <vehicle id="35" depart="3.50">
        <route edges="--222 --214#11 --220 -188#17 --226 -214#10 -214#11 -214#12 -214#13 -214#14 -214#15 -214#16 -214#17 -214#18 -214#19 -214#20 -214#21 -214#22 -214#23 -214#24 -182 -188#3 -188#4 -186 --214#22 -194 --188#5"/>
    </vehicle>
    <vehicle id="36" depart="3.60">
        <route edges="--184 -188#1 --190 --214#25 -182 -188#3 -188#4 -188#5 --194 -214#22 -214#23 -214#24 -214#25 -214#26 --184 --188#0"/>
    </vehicle>
    <vehicle id="37" depart="3.70">
        <route edges="--208 -214#17 -214#18 -214#19 -214#20 -214#21 -194 -188#6 -188#7 -188#8 -188#9 -188#10 -188#11 -188#12 -198 -214#15 -214#16 -214#17 -200"/>
    </vehicle>
    <vehicle id="38" depart="3.80">
        <route edges="--214#12 --214#11 --214#10 --214#9 --214#8 --214#7 --214#6 --214#5 --214#4 --214#3 --214#2 --214#1 --214#0 --188#26 --236 --214#1 -212 -188#27 -214#1 -214#2 -214#3 -214#4 -214#5 -214#6 -214#7 -214#8 -214#9 -214#10 -214#11 -214#12 -214#13 -214#14 -214#15 -214#16 -208"/>
    </vehicle>
    <vehicle id="39" depart="3.90">
        <route edges="--190 --214#25 --214#24 --214#23 --214#22 --214#21 --214#20 --214#19 --214#18 --214#17 --214#16 --214#15 --214#14 -206 -188#14 -188#15 -188#16 -188#17 -188#18 --218 -214#9 -214#10 --220 --188#16 --188#15 --188#14 --188#13 -198 --214#14 -206 -188#14 -188#15 -188#16 -188#17 -188#18 -188#19 -188#20 -188#21 -188#22 -188#23 -188#24 -188#25 --236"/>
    </vehicle>
    <vehicle id="40" depart="4.00">
        <route edges="-214#10 --220"/>
    </vehicle>
    <vehicle id="41" depart="4.10">
        <route edges="-214#24 -182 -188#3 -188#4 -186 --214#22 --214#21 --214#20 -196 -188#8 -188#9 -188#10 -188#11 -188#12 -188#13 -188#14 -188#15 -188#16 -220 --214#10 --214#9 -218 --188#18 --188#17 --188#16 --188#15 --188#14 --188#13 --188#12 --188#11 --188#10 --188#9 --188#8 --188#7 --202"/>
    </vehicle>
    <vehicle id="42" depart="4.20">
        <route edges="--198 --188#12 --188#11 --188#10 --188#9 --188#8 --188#7 --188#6 --188#5 -186 --214#22 --214#21 --214#20 --214#19 --214#18 --214#17 --214#16 --214#15 --214#14 --214#13 --214#12 --214#11 --214#10 --214#9 --214#8 --214#7 --224 --188#20 --230 -214#8 -218"/>
    </vehicle>
    <vehicle id="43" depart="4.30">
        <route edges="-188#27 -214#1 -214#2 --216 --188#24 --188#23 --188#22 --188#21 --188#20 --188#19 --188#18 --188#17 --188#16 --188#15 --188#14 --188#13 --188#12 --188#11 --188#10 --188#9 --188#8 --188#7 --188#6 --188#5 --188#4 --188#3 --188#2 --188#1 --188#0 --214#26 --214#25 --214#24 --214#23 --214#22 --214#21 --214#20 --214#19 --214#18 --214#17 --214#16 --214#15 --214#14 -206 -188#14 -188#15 -188#16 -188#17 -188#18 --218 -214#9 -226 -188#18 -188#19 --230 --214#7 --214#6 --214#5 --214#4 --214#3 --216 --188#24"/>
    </vehicle>
    <vehicle id="44" depart="4.40">
        <route edges="--214#0 --188#26 --188#25 --188#24 --188#23 --188#22 --232 -214#6 -214#7 -214#8 -214#9 -214#10 --220 --188#16 --188#15 --188#14 --188#13 --188#12 --188#11 --208 --214#16 -204 --188#11 --188#10 --188#9 --188#8 --188#7 --202 -214#21 -214#22 -214#23 -192"/>
    </vehicle>
    <vehicle id="45" depart="4.50">
        <route edges="-186 --214#22 --214#21 --214#20 --214#19 --214#18 --214#17 --214#16 --214#15 --214#14 -206 -188#14 -188#15 -188#16 -188#17 -188#18 -188#19 -188#20 -188#21 -188#22 -188#23 -188#24 -188#25 --236 -214#2 --216 --188#24 --188#23 --188#22 --188#21 --188#20 --230 --214#7"/>
    </vehicle>
    <vehicle id="46" depart="4.60">
        <route edges="-188#10 --208 -214#17 -214#18 -214#19 -214#20 -214#21 -214#22 --186 -188#5 -188#6 -188#7 -188#8 -188#9 -188#10 -188#11 --204 -214#16 -208 -188#11 -188#12 -188#13 -188#14 -188#15 -188#16 -188#17 -188#18 -188#19 -188#20 -188#21 -188#22 -188#23 -188#24 -216 --214#2 --214#1 -212"/>
    </vehicle>
    <vehicle id="47" depart="4.70">
        <route edges="--184 -188#1 -188#2 -188#3 -188#4 -188#5 -188#6 -188#7 -188#8 -210 --214#18 -200 --188#9 -210 -214#19 -196 -188#8 -188#9 -188#10 -188#11 -188#12 -188#13 -188#14 -188#15 --222"/>
    </vehicle>
    <vehicle id="48" depart="4.80">
        <route edges="-188#12 -188#13 -188#14 -188#15 -188#16 -220 --214#10 --214#9 --214#8 --214#7 --214#6 --214#5 -238 -188#23 -188#24 -216 --214#2 --214#1 -212 --188#26 --188#25 --188#24 --188#23 --188#22 --188#21 --188#20 --188#19 --188#18 --188#17 --188#16 --188#15 --188#14 --206 -214#14 -214#15 -214#16 -214#17 -214#18 -214#19 -214#20 -214#21 -214#22 -214#23 -214#24 -214#25 -190"/>
    </vehicle>
    <vehicle id="49" depart="4.90">
        <route edges="--228 --214#12 --214#11 --214#10 -226 -188#18 -188#19 -188#20 -188#21 -188#22 --238 -214#5 -214#6 -214#7 -214#8 -214#9 -214#10 --220 --188#16 --222 -214#12 -228"/>
    </vehicle>
    <vehicle id="50" depart="5.00">
        <route edges="--214#6 --214#5 -238 -188#23 -188#24 -188#25 -188#26 -188#27 -214#1 -214#2 -214#3 -214#4 -214#5 -214#6 -214#7 -214#8 -214#9 -214#10 -214#11 -214#12 -214#13 -214#14 -214#15 -214#16 -214#17 -214#18 -214#19 -214#20 -202 -188#7 -188#8 -188#9 -188#10 -188#11 --204"/>
    </vehicle>
    <vehicle id="51" depart="5.10">
        <route edges="--210 -188#9 -188#10 -188#11 -188#12 -188#13 -188#14 -188#15 -188#16 -188#17 -188#18 -188#19 -188#20 -188#21 -188#22 -188#23 -188#24 -216 -214#3 -214#4 -214#5 -214#6 -214#7 -214#8 -214#9 -214#10 --220 --188#16 --188#15 --188#14 --188#13 --188#12 --188#11 --188#10 --188#9 --188#8 --188#7 --188#6 --188#5 --188#4 --188#3 --188#2 --188#1 --188#0 --214#26 --214#25 --214#24 -192 -188#4 -186"/>
    </vehicle>
    <vehicle id="52" depart="5.20">
        <route edges="--206 --214#13 --214#12 --214#11 --214#10 -226 -188#18 -188#19 -188#20 -188#21 -188#22 --238 -214#5 -214#6 -214#7 -214#8 -214#9 -214#10 --220 --188#16 --188#15 --188#14 --188#13 --188#12 --188#11 --208"/>
    </vehicle>
    <vehicle id="53" depart="5.30">
        <route edges="-214#17 -200 -188#10 -188#11 -188#12 -188#13 -188#14 -188#15 -188#16 -188#17 -188#18 -188#19 -188#20 -188#21 -188#22 -188#23 -188#24 -188#25 --236 -214#2 --216 --188#24 --188#23 --188#22 --188#21 --188#20 --188#19 --188#18 --188#17 --188#16 --188#15 --188#14 --188#13 --188#12 --188#11 --188#10 --188#9 -210 --214#18 -200 -188#10 --208"/>
    </vehicle>
    <vehicle id="54" depart="5.40">
        <route edges="-188#27 -214#1 -214#2 -214#3 -214#4 -214#5 -214#6 -214#7 -214#8 -214#9 -214#10 -214#11 -222 --188#15 --188#14 --188#13 --188#12 --188#11 --188#10 --188#9 --188#8 --188#7 --188#6 --188#5 --188#4 --188#3 --188#2 --190 --214#25 --214#24 -192 --188#3 --182 -214#25"/>
    </vehicle>
    <vehicle id="55" depart="5.50">
        <route edges="--228 --214#12 --214#11 --214#10 -226 -188#18 -188#19 -188#20 -188#21 -188#22 -188#23 -188#24 -188#25 -188#26 --212 -214#1 -214#2 -214#3 -214#4 -214#5 -214#6 --224 -188#21 --232 -214#6 -214#7 -214#8 -214#9 -214#10 -214#11 -214#12 -214#13 -214#14 -214#15 -214#16 -214#17 -214#18 -214#19 -214#20 -202"/>
    </vehicle>
    <vehicle id="56" depart="5.60">
        <route edges="--188#0 --214#26 --214#25 --214#24 --214#23 --214#22 --214#21 --214#20 --214#19 --214#18 --214#17 --214#16 --214#15 --214#14 --214#13 --214#12 --214#11 --214#10 -226 -188#18 -188#19 --230 --214#7 --214#6 --214#5 -238 --188#22 --188#21 --188#20 --188#19 --188#18 --188#17 --188#16 --188#15 --188#14 --188#13 --188#12 --188#11 --188#10 --188#9 --188#8 --188#7 --188#6 --188#5 --188#4 --188#3 --188#2 --188#1 -184"/>
    </vehicle>
    <vehicle id="57" depart="5.70">
        <route edges="-234 --188#23 --188#22 --188#21 --188#20 --188#19 --188#18 --188#17 --188#16 --188#15 --228 --214#12 --214#11 --214#10 -226 --188#17 --188#16 --188#15 --188#14 --188#13 --188#12 --188#11 --188#10 --188#9 --188#8 --188#7 --188#6 --194 --214#21"/>
    </vehicle>
    <vehicle id="58" depart="5.80">
        <route edges="--210 -188#9 -188#10 -188#11 -188#12 -188#13 -188#14 -188#15 --222 -214#12 -214#13 -214#14 -214#15 -214#16 -214#17 -214#18 -214#19 -214#20 -214#21 -214#22 -214#23 -214#24 -182 -188#3 -188#4 -188#5 -188#6 -188#7 -188#8 -188#9 -188#10 -188#11 -188#12 -188#13 -188#14 -188#15 -188#16 -188#17 -188#18 -188#19 -188#20 -188#21 -188#22 -188#23 -188#24 -216 --214#2 --214#1 -212 --188#26"/>
    </vehicle>
    <vehicle id="59" depart="5.90">
        <route edges="--214#2 -236 --188#25 --188#24 --188#23 --188#22 --188#21 --188#20 --188#19 --188#18 --188#17 --188#16 --188#15 --188#14 --206 -214#14 -214#15 -214#16 -214#17 -214#18 -214#19 -214#20 -214#21 -214#22 -214#23 -214#24 -214#25 -190 -188#2 -188#3 -188#4 -186 --214#22 --214#21 --214#20 --214#19 --210 -188#9 -188#10 -188#11 -188#12 -188#13 -188#14 -188#15 -188#16 -188#17 --226"/>
    </vehicle>
    <vehicle id="60" depart="6.00">
        <route edges="--196 --214#19 --214#18 --214#17 --214#16 --214#15 --214#14 --214#13 --214#12 --214#11 --214#10 --214#9 --214#8 --214#7 --214#6 --214#5 --214#4 --214#3 --214#2 --214#1 --214#0 --188#26 --188#25 --188#24 --188#23 --188#22 --188#21 --188#20 --188#19 --188#18 --188#17 --188#16 --188#15 --188#14 --206 -214#14 -214#15 -214#16 -214#17 -214#18 -214#19 -214#20 -214#21 -214#22 -214#23 -214#24 -214#25 -190 -188#2 -188#3 --192 -214#24 -182"/>
    </vehicle>
    <vehicle id="61" depart="6.10">
        <route edges="-188#16 -220 -214#11 -214#12 -214#13 -214#14 -214#15 -214#16 -214#17 -214#18 -214#19 -214#20 -214#21 -214#22 -214#23 -214#24 -214#25 -214#26 --184 -188#1 -188#2 -188#3 -188#4 -188#5 -188#6 -188#7 -188#8 -210 --214#18 --214#17 --214#16 -204 --188#11 --188#10 --188#9 --188#8 --188#7 --202 -214#21 -214#22 -214#23 -192"/>
    </vehicle>
    <vehicle id="62" depart="6.20">
        <route edges="-216 --214#2 --214#1 -212 --188#26 --236 -214#2 --216 -188#25 --236 --214#1 -212 --188#26 --188#25 --188#24 --188#23 --188#22 --188#21 --188#20 --188#19 --188#18 --188#17 --188#16 --188#15 --188#14 --206 -214#14"/>
    </vehicle>
    <vehicle id="63" depart="6.30">
        <route edges="-188#14 -188#15 -188#16 -220 -214#11 -214#12 -214#13 -214#14 -214#15 -214#16 -214#17 -214#18 -214#19 -214#20 -214#21 -214#22 -214#23 -214#24 -214#25 -214#26 --184 -188#1 -188#2 --182 -214#25 -190 --188#1"/>
    </vehicle>
    <vehicle id="64" depart="6.40">
        <route edges="--182 --214#24 --214#23 --214#22 --214#21 --214#20 --214#19 --214#18 --214#17 --214#16 --214#15 --214#14 --214#13 --214#12 --214#11 --214#10 --214#9 -218 --188#18 --188#17 --188#16 --188#15 --188#14 --206 -214#14 -214#15 -214#16 -214#17 -200 -188#10 -188#11 -188#12 -188#13 -188#14 -188#15 -188#16 -220 --214#10 --214#9 --214#8 --214#7 --214#6 --214#5 --214#4 --214#3 --216"/>
    </vehicle>
    <vehicle id="65" depart="6.50">
        <route edges="--196 --214#19 --214#18 --214#17 --214#16 --214#15 --214#14 -206 -188#14 -188#15 -188#16 -188#17 --226 -214#10 --220 --188#16 --188#15 --188#14 --188#13 --188#12 --188#11 --188#10 --188#9 --188#8 --188#7 --188#6 --188#5 --188#4 --188#3 --188#2 --188#1 -184"/>
    </vehicle>
    <vehicle id="66" depart="6.60">
        <route edges="--214#0 --188#26 --188#25 --188#24 --188#23 --188#22 --188#21 --188#20 --188#19 --188#18 --188#17 --188#16 --188#15 --188#14 --188#13 --188#12 --188#11 --188#10 --188#9 -210 --214#18 --214#17 -208 --188#10 --200 --214#17 -208 --188#10 --188#9 -210 --214#18"/>
    </vehicle>
    <vehicle id="67" depart="6.70">
        <route edges="-208 --188#10 --200 -214#18 -214#19 -214#20 -214#21 -214#22 -214#23 -192 --188#3 --182 --214#24 --214#23 --186 --188#4"/>
    </vehicle>
    <vehicle id="68" depart="6.80">
        <route edges="-186 --214#22 --214#21 -202 --188#6 --194 --214#21 --214#20 --214#19 --214#18 --214#17 --214#16 --214#15 --214#14 -206 --188#13"/>
    </vehicle>
    <vehicle id="69" depart="6.90">
        <route edges="-188#2 --182 -214#25 -214#26 --184 -188#1 -188#2 -188#3 -188#4 -188#5 -188#6 -188#7 -188#8 -188#9 -188#10 -188#11 -188#12 -188#13 -188#14 -188#15 -188#16 -188#17 -188#18 -188#19 -188#20 -224 -214#7 -214#8 -214#9 -214#10 -214#11 -214#12 -214#13 -214#14 -214#15 -214#16 -214#17 -214#18 -214#19 -196"/>
    </vehicle>
    <vehicle id="70" depart="7.00">
        <route edges="--184 -188#1 -188#2 --182 --214#24 --214#23 --186 -188#5 -188#6 -188#7 -188#8 -210 --214#18 --214#17 --214#16 --214#15 --214#14 --214#13 --214#12 -222 --188#15 --188#14 --206"/>
    </vehicle>
    <vehicle id="71" depart="7.10">
        <route edges="-188#24 -216 -214#3 -214#4 -214#5 -214#6 -214#7 -214#8 -214#9 -214#10 -214#11 -214#12 -214#13 -206 -188#14 -188#15 -188#16 -188#17 --226"/>
    </vehicle>
    <vehicle id="72" depart="7.20">
        <route edges="--200 --214#17 --214#16 -204 -188#12 -188#13 -188#14 -188#15 -188#16 -188#17 -188#18 -188#19 -188#20 -188#21 -188#22 -188#23 -188#24 -216 --214#2 --214#1 --214#0 --188#26 --188#25 --188#24 --188#23 --188#22 --232 --214#5"/>
    </vehicle>
    <vehicle id="73" depart="7.30">
        <route edges="--192 --214#23 --214#22 --214#21 -202 -188#7 -188#8 -188#9 -188#10 -188#11 --204 -214#16 -214#17 -214#18 --210 -188#9 -188#10 -188#11 -188#12 -188#13 -188#14 -188#15 --222"/>
    </vehicle>
    <vehicle id="74" depart="7.40">
        <route edges="--234 -214#4 -214#5 -214#6 --224 --188#20 --230 --214#7 --214#6 --214#5 --214#4 -234 --188#23 --238 --214#4 -234"/>
    </vehicle>
    <vehicle id="75" depart="7.50">
        <route edges="-220 -214#11 -214#12 -214#13 -214#14 -214#15 -214#16 -214#17 -214#18 -214#19 -214#20 -214#21 -214#22 -214#23 -192 -188#4 -186 --214#22 -194 --188#5 --188#4 --192 -214#24 -182 -188#3"/>
    </vehicle>
    <vehicle id="76" depart="7.60">
        <route edges="-228 --188#14 --188#13 --188#12 --188#11 --188#10 --188#9 --188#8 --188#7 --188#6 --188#5 --188#4 --188#3 --188#2 --188#1 --188#0 --214#26 --214#25 --214#24 --214#23 --214#22 --214#21 --214#20 --214#19 --214#18 --214#17 --214#16 --214#15 --214#14 --214#13 --214#12 --214#11 --214#10 --214#9 --214#8 --214#7 --214#6 --214#5 --214#4 --214#3 --214#2 --214#1 --214#0"/>
    </vehicle>
    <vehicle id="77" depart="7.70">
        <route edges="--188#19 --188#18 --188#17 --188#16 --188#15 --188#14 --206 -214#14 -214#15 -214#16 -214#17 -214#18 -214#19 -214#20 -214#21 -214#22 -214#23 -214#24 -214#25 -214#26 --184 -188#1 -188#2 -188#3 -188#4 -188#5 -188#6 -188#7 -188#8 -188#9 -188#10 -188#11 -188#12 -188#13 -188#14 -188#15 -188#16 -188#17 -188#18 -188#19 -188#20 -188#21 -188#22 -188#23 -188#24 -188#25 -188#26 --212 -214#1 -214#2 -214#3 -214#4 -214#5 -214#6 -214#7 -214#8 -214#9 -214#10 -214#11 -214#12 -214#13 -214#14 -214#15 -214#16 -214#17 -214#18 -214#19 -214#20 -214#21 -214#22 -214#23 -214#24 -214#25"/>
    </vehicle>
    <vehicle id="78" depart="7.80">
        <route edges="-208 -188#11 -188#12 -188#13 -188#14 -188#15 -188#16 -220 --214#10 --214#9 --214#8 --214#7 --214#6 --214#5 --214#4 --214#3 --216 --188#24 --188#23 --238 -214#5 -214#6 -214#7 -230 --188#19 --218 --214#8 --214#7 --224"/>
    </vehicle>
    <vehicle id="79" depart="7.90">
        <route edges="--214#0 --188#26 --236 -214#2 -214#3 -234 --188#23 --188#22 --188#21 --188#20 --188#19 --188#18 --188#17 --188#16 --188#15 --188#14 --206 -214#14 --198 -188#13 -188#14"/>
    </vehicle>
    <vehicle id="80" depart="8.00">
        <route edges="--214#11 --214#10 -226 -188#18 -188#19 -188#20 -188#21 -188#22 --238 --214#4 --214#3 --214#2 -236 -188#26 --212 -214#1 -214#2 -214#3 -214#4 -214#5 -214#6 -214#7 -214#8 -214#9 -214#10 -214#11 -214#12 -228"/>
    </vehicle>
    <vehicle id="81" depart="8.10">
        <route edges="--188#6 --194 --214#21 --214#20 --214#19 --214#18 --214#17 --214#16 --214#15 --214#14 -206 -188#14 -188#15 -188#16 -188#17 -188#18 -188#19 -188#20 -188#21 -188#22 -188#23 --234 -214#4 -214#5 -214#6 -214#7 -214#8 -214#9 -214#10 --220 --188#16 --188#15 --188#14 --188#13 --188#12 --188#11 --208 -214#17 -214#18 --210"/>
    </vehicle>
    <vehicle id="82" depart="8.20">
        <route edges="--222 -214#12 -228 --188#14 --206 -214#14 -214#15 -214#16 -214#17 -214#18 --210 --188#8 --188#7 --188#6 --188#5 -186 --214#22 --214#21 --214#20 --214#19 --214#18 --214#17 --214#16 --214#15 --214#14 --214#13 --214#12 --214#11 --214#10 --214#9 --214#8 --214#7 --214#6 --214#5 --214#4 --214#3 --214#2 --214#1"/>
    </vehicle>