<?xml version="1.0"?>
<!-- generated on 2016-12-01 13:52:13.841358 by $Id: randomTrips.py 19495 2015-12-02 12:36:28Z behrisch $
  options: -n ./topology/line.150.roads.xml <doubleminus>r ./topology/line.150.routes.xml -a ./topology/line.150.randomTrips.xml <doubleminus>begin 0 <doubleminus>end 15.00 <doubleminus>period 0.1 <doubleminus>min-distance 0 <doubleminus>fringe-factor 0 <doubleminus>intermediate 2 -l -o ./topology/line.150.trips.xml
-->
<trips>
    <trip id="0" depart="0.00" from="-202#1" to="--236#0" via="-204#1 -198#1" />
    <trip id="1" depart="0.10" from="--230#1" to="-186#0" via="-212#1 -192#28" />
    <trip id="2" depart="0.20" from="--192#54" to="-218#16" via="-210#0 --208#1" />
    <trip id="3" depart="0.30" from="--224#1" to="-192#55" via="-242#0 --238#0" />
    <trip id="4" depart="0.40" from="-224#0" to="-190#1" via="--206#1 --238#1" />
    <trip id="5" depart="0.50" from="-192#19" to="--228#0" via="-210#1 --240#1" />
    <trip id="6" depart="0.60" from="-194#1" to="--218#16" via="-244#1 -224#1" />
    <trip id="7" depart="0.70" from="--194#0" to="-240#0" via="--206#0 --194#1" />
    <trip id="8" depart="0.80" from="--230#0" to="-204#0" via="-210#1 --204#0" />
    <trip id="9" depart="0.90" from="--244#0" to="-228#0" via="--206#0 --212#0" />
    <trip id="10" depart="1.00" from="-218#15" to="--192#28" via="-220#0 --244#0" />
    <trip id="11" depart="1.10" from="--240#0" to="-218#17" via="-198#1 -244#1" />
    <trip id="12" depart="1.20" from="--216#0" to="-228#1" via="--214#1 -208#0" />
    <trip id="13" depart="1.30" from="--190#1" to="-226#0" via="--224#1 -214#1" />
    <trip id="14" depart="1.40" from="-192#27" to="--196#0" via="-204#0 -204#0" />
    <trip id="15" depart="1.50" from="--212#1" to="-226#0" via="--240#1 -222#0" />
    <trip id="16" depart="1.60" from="-238#1" to="--238#1" via="-238#1 -224#1" />
    <trip id="17" depart="1.70" from="--188#1" to="-192#54" via="-214#1 --224#0" />
    <trip id="18" depart="1.80" from="-242#0" to="--192#47" via="--218#20 -202#0" />
    <trip id="19" depart="1.90" from="--204#1" to="-236#0" via="-230#1 --206#1" />
    <trip id="20" depart="2.00" from="--234#1" to="--222#1" via="--230#1 -218#19" />
    <trip id="21" depart="2.10" from="-206#0" to="--212#0" via="--202#1 --206#1" />
    <trip id="22" depart="2.20" from="--214#0" to="--192#0" via="--206#0 -192#39" />
    <trip id="23" depart="2.30" from="-204#0" to="--200#0" via="-238#1 -186#1" />
    <trip id="24" depart="2.40" from="--226#0" to="-216#0" via="--220#1 --234#0" />
    <trip id="25" depart="2.50" from="-192#27" to="-236#1" via="--238#1 --192#33" />
    <trip id="26" depart="2.60" from="-232#1" to="-214#1" via="--192#35 --222#1" />
    <trip id="27" depart="2.70" from="-212#1" to="--218#14" via="--228#1 -200#1" />
    <trip id="28" depart="2.80" from="--238#1" to="--192#14" via="--226#1 -186#1" />
    <trip id="29" depart="2.90" from="--240#1" to="--236#1" via="-194#0 --236#0" />
    <trip id="30" depart="3.00" from="--198#0" to="--206#1" via="--214#0 --212#1" />
    <trip id="31" depart="3.10" from="--218#17" to="-228#1" via="-218#2 --240#1" />
    <trip id="32" depart="3.20" from="-192#1" to="--232#1" via="-232#0 -192#18" />
    <trip id="33" depart="3.30" from="-228#1" to="--192#28" via="--192#42 -212#1" />
    <trip id="34" depart="3.40" from="-196#1" to="--192#13" via="--192#9 -192#2" />
    <trip id="35" depart="3.50" from="-238#1" to="-192#48" via="-192#12 -224#1" />
    <trip id="36" depart="3.60" from="-220#1" to="-226#1" via="-206#1 -222#1" />
    <trip id="37" depart="3.70" from="--188#1" to="-192#35" via="--232#0 --232#1" />
    <trip id="38" depart="3.80" from="--236#1" to="-212#0" via="--224#1 -192#22" />
    <trip id="39" depart="3.90" from="--232#0" to="-218#21" via="-192#10 -192#17" />
    <trip id="40" depart="4.00" from="-190#1" to="--218#15" via="-228#1 -206#1" />
    <trip id="41" depart="4.10" from="-208#0" to="--192#40" via="-192#20 -202#0" />
    <trip id="42" depart="4.20" from="--226#0" to="--216#0" via="--212#0 --214#1" />
    <trip id="43" depart="4.30" from="--200#0" to="--240#0" via="-216#1 -192#36" />
    <trip id="44" depart="4.40" from="-230#1" to="-196#1" via="-188#1 --214#0" />
    <trip id="45" depart="4.50" from="-226#1" to="--206#1" via="--226#1 -186#1" />
    <trip id="46" depart="4.60" from="--234#1" to="-192#10" via="-232#1 -222#1" />
    <trip id="47" depart="4.70" from="--232#0" to="--192#22" via="--206#1 --212#1" />
    <trip id="48" depart="4.80" from="-190#1" to="--230#0" via="-192#43 -190#0" />
    <trip id="49" depart="4.90" from="-226#1" to="--196#1" via="--208#1 -202#1" />
    <trip id="50" depart="5.00" from="-192#55" to="--192#50" via="-220#1 --238#1" />
    <trip id="51" depart="5.10" from="--220#0" to="--208#1" via="-234#0 --192#10" />
    <trip id="52" depart="5.20" from="-192#27" to="--192#47" via="--216#1 -238#1" />
    <trip id="53" depart="5.30" from="--212#1" to="-188#1" via="--190#0 -220#0" />
    <trip id="54" depart="5.40" from="-218#8" to="-192#31" via="-198#1 -208#0" />
    <trip id="55" depart="5.50" from="--224#0" to="-208#1" via="-192#27 --224#0" />
    <trip id="56" depart="5.60" from="-208#0" to="-204#0" via="-220#1 --238#1" />
    <trip id="57" depart="5.70" from="-192#27" to="-238#1" via="-206#0 --192#10" />
    <trip id="58" depart="5.80" from="-198#1" to="--218#10" via="-206#1 -218#9" />
    <trip id="59" depart="5.90" from="--192#27" to="-218#3" via="--192#50 -210#1" />
    <trip id="60" depart="6.00" from="--192#6" to="--230#0" via="--224#1 --218#18" />
    <trip id="61" depart="6.10" from="--192#35" to="-216#0" via="-240#0 --216#1" />
    <trip id="62" depart="6.20" from="-218#4" to="-192#11" via="--202#0 --236#1" />
    <trip id="63" depart="6.30" from="-234#0" to="--192#22" via="--196#0 -188#1" />
    <trip id="64" depart="6.40" from="-194#1" to="-190#1" via="--192#8 -218#27" />
    <trip id="65" depart="6.50" from="-220#0" to="--192#27" via="-218#20 --234#1" />
    <trip id="66" depart="6.60" from="-192#11" to="--190#1" via="-188#1 -192#38" />
    <trip id="67" depart="6.70" from="--218#16" to="-192#28" via="--220#1 -192#9" />
    <trip id="68" depart="6.80" from="--192#48" to="-198#1" via="-202#0 -198#1" />
    <trip id="69" depart="6.90" from="-192#24" to="-226#1" via="--220#1 --202#0" />
    <trip id="70" depart="7.00" from="--234#1" to="--192#0" via="--192#6 -192#35" />
    <trip id="71" depart="7.10" from="-210#0" to="-232#0" via="--228#1 -192#55" />
    <trip id="72" depart="7.20" from="-230#0" to="-218#26" via="--242#0 --218#9" />
    <trip id="73" depart="7.30" from="-192#23" to="--210#0" via="--234#1 -192#22" />
    <trip id="74" depart="7.40" from="--192#15" to="--190#0" via="--240#0 -216#0" />
    <trip id="75" depart="7.50" from="-186#0" to="--192#27" via="-232#0 -238#0" />
    <trip id="76" depart="7.60" from="--232#0" to="--198#1" via="-200#0 -240#1" />
    <trip id="77" depart="7.70" from="-234#0" to="-234#1" via="-242#0 -192#13" />
    <trip id="78" depart="7.80" from="--188#1" to="-188#1" via="--208#1 --192#31" />
    <trip id="79" depart="7.90" from="--218#15" to="--192#2" via="-202#1 --220#1" />
    <trip id="80" depart="8.00" from="--198#1" to="--202#0" via="--198#0 --196#1" />
    <trip id="81" depart="8.10" from="-238#0" to="-218#12" via="-214#1 -218#17" />
    <trip id="82" depart="8.20" from="--242#0" to="--192#7" via="-204#0 -204#1" />
    <trip id="83" depart="8.30" from="--192#44" to="-218#0" via="-202#1 --230#0" />
    <trip id="84" depart="8.40" from="--234#0" to="--240#0" via="--236#0 --218#26" />
    <trip id="85" depart="8.50" from="-192#5" to="--220#1" via="-202#0 -230#0" />
    <trip id="86" depart="8.60" from="-186#1" to="--212#0" via="--220#0 -192#6" />
    <trip id="87" depart="8.70" from="-222#0" to="--196#0" via="-192#50 -240#1" />
    <trip id="88" depart="8.80" from="-244#1" to="--200#0" via="--192#39 --208#0" />
    <trip id="89" depart="8.90" from="-236#0" to="--204#0" via="-214#0 -208#1" />
    <trip id="90" depart="9.00" from="--218#17" to="--198#1" via="--238#0 --220#0" />
    <trip id="91" depart="9.10" from="-204#0" to="-202#0" via="--210#1 --192#20" />
    <trip id="92" depart="9.20" from="--194#1" to="--192#3" via="--212#0 -192#28" />
    <trip id="93" depart="9.30" from="--226#1" to="--190#1" via="-236#1 -192#55" />
    <trip id="94" depart="9.40" from="--210#0" to="--220#0" via="-190#1 -226#1" />
    <trip id="95" depart="9.50" from="--192#17" to="-192#4" via="-192#19 -216#0" />
    <trip id="96" depart="9.60" from="-206#1" to="-202#1" via="--214#1 --192#37" />
    <trip id="97" depart="9.70" from="--192#22" to="--192#28" via="--194#1 --192#4" />
    <trip id="98" depart="9.80" from="-220#0" to="-210#0" via="-210#0 --206#0" />
    <trip id="99" depart="9.90" from="-234#1" to="--224#1" via="--192#40 --198#1" />
    <trip id="100" depart="10.00" from="--200#0" to="-202#0" via="-242#0 -212#0" />
    <trip id="101" depart="10.10" from="-192#51" to="--206#0" via="--220#0 -204#1" />
    <trip id="102" depart="10.20" from="-192#20" to="-238#1" via="-200#1 -222#0" />
    <trip id="103" depart="10.30" from="-212#0" to="--214#1" via="-218#3 --198#0" />
    <trip id="104" depart="10.40" from="--200#1" to="-192#8" via="--190#1 -232#1" />
    <trip id="105" depart="10.50" from="-232#1" to="-188#1" via="-204#0 --240#1" />
    <trip id="106" depart="10.60" from="-202#0" to="--192#13" via="-204#0 --240#0" />
    <trip id="107" depart="10.70" from="--228#1" to="-198#0" via="--238#0 -226#0" />
    <trip id="108" depart="10.80" from="--192#11" to="--224#0" via="--192#42 -192#11" />
    <trip id="109" depart="10.90" from="--212#1" to="-192#18" via="--188#1 -244#1" />
    <trip id="110" depart="11.00" from="--192#28" to="-232#1" via="-228#1 --218#10" />
    <trip id="111" depart="11.10" from="-194#1" to="--208#0" via="-208#0 --214#0" />
    <trip id="112" depart="11.20" from="--192#3" to="--234#0" via="-232#1 --204#1" />
    <trip id="113" depart="11.30" from="--212#1" to="--190#1" via="--196#0 --236#1" />
    <trip id="114" depart="11.40" from="--192#10" to="-192#33" via="-192#14 -198#1" />
    <trip id="115" depart="11.50" from="--236#1" to="--192#0" via="--244#0 -202#0" />
    <trip id="116" depart="11.60" from="-228#0" to="-212#1" via="-226#0 -236#0" />
    <trip id="117" depart="11.70" from="--192#10" to="--196#1" via="--210#0 -192#38" />
    <trip id="118" depart="11.80" from="-192#30" to="-212#0" via="--222#0 -234#1" />
    <trip id="119" depart="11.90" from="-238#0" to="-214#0" via="--200#1 -220#1" />
    <trip id="120" depart="12.00" from="--214#0" to="--220#0" via="-240#1 --240#1" />
    <trip id="121" depart="12.10" from="-242#0" to="-214#0" via="--228#1 --198#1" />
    <trip id="122" depart="12.20" from="-192#22" to="-192#42" via="-218#14 --192#48" />
    <trip id="123" depart="12.30" from="--220#0" to="-216#1" via="--190#0 --188#0" />
    <trip id="124" depart="12.40" from="--226#1" to="-192#31" via="--218#25 -242#1" />
    <trip id="125" depart="12.50" from="--186#0" to="-224#1" via="--218#9 -244#1" />
    <trip id="126" depart="12.60" from="-216#0" to="-228#1" via="--240#1 -204#1" />
    <trip id="127" depart="12.70" from="-228#1" to="--210#1" via="--208#0 --244#0" />
    <trip id="128" depart="12.80" from="--194#0" to="-192#26" via="-192#17 -196#0" />
    <trip id="129" depart="12.90" from="-210#0" to="--192#21" via="-192#27 --212#0" />
    <trip id="130" depart="13.00" from="-210#0" to="-192#24" via="-220#0 --234#1" />
    <trip id="131" depart="13.10" from="--192#27" to="-192#11" via="--228#1 --240#0" />
    <trip id="132" depart="13.20" from="--196#0" to="-196#1" via="--218#18 -242#0" />
    <trip id="133" depart="13.30" from="--218#3" to="--192#0" via="--192#22 --226#0" />
    <trip id="134" depart="13.40" from="-232#1" to="-192#53" via="--192#28 -204#0" />
    <trip id="135" depart="13.50" from="--214#1" to="-198#0" via="-192#6 -210#0" />
    <trip id="136" depart="13.60" from="-240#1" to="--192#27" via="-192#28 --202#1" />
    <trip id="137" depart="13.70" from="-192#5" to="--240#1" via="--238#1 --192#27" />
    <trip id="138" depart="13.80" from="-204#0" to="--242#0" via="-240#0 --218#15" />
    <trip id="139" depart="13.90" from="-192#32" to="--230#1" via="-232#0 -186#1" />
    <trip id="140" depart="14.00" from="-194#1" to="--192#3" via="-216#0 -240#0" />
    <trip id="141" depart="14.10" from="--216#0" to="-234#0" via="-216#0 -192#10" />
    <trip id="142" depart="14.20" from="--196#0" to="-232#1" via="--196#0 -218#7" />
    <trip id="143" depart="14.30" from="-204#0" to="-222#1" via="-220#1 --216#1" />
    <trip id="144" depart="14.40" from="-220#0" to="-198#0" via="--232#1 -218#17" />
    <trip id="145" depart="14.50" from="-208#1" to="--216#1" via="--192#17 --218#0" />
    <trip id="146" depart="14.60" from="--218#8" to="--224#1" via="-238#1 -218#23" />
    <trip id="147" depart="14.70" from="-196#0" to="--240#1" via="--218#4 --192#28" />
    <trip id="148" depart="14.80" from="-192#38" to="-192#22" via="--202#0 -194#0" />
    <trip id="149" depart="14.90" from="--206#0" to="-218#4" via="-218#18 --196#1" />
    <trip id="150" depart="15.00" from="--244#0" to="--218#4" via="-206#1 --244#0" />
</trips>
