<?xml version="1.0" encoding="UTF-8"?>

<!-- generated on Thu Dec  1 13:52:13 2016 by SUMO polyconvert Version 0.25.0D
<?xml version="1.0" encoding="UTF-8"?>

<configuration xmlns:xsi="http://www.w3.org/2001/XMLSchema-instance" xsi:noNamespaceSchemaLocation="http://sumo.dlr.de/xsd/polyconvertConfiguration.xsd">

    <input>
        <net-file value="./topology/line.150.roads.xml"/>
        <osm-files value="./topology/line.150.clean.osm"/>
        <type-file value="typemap.xml"/>
    </input>

    <output>
        <output-file value="./topology/line.150.poly.xml"/>
    </output>

    <processing>
        <ignore-errors value="true"/>
        <poi-layer-offset value="5"/>
    </processing>

</configuration>
-->

<additional xmlns:xsi="http://www.w3.org/2001/XMLSchema-instance" xsi:noNamespaceSchemaLocation="http://sumo.dlr.de/xsd/additional_file.xsd">
    <location netOffset="-827054.73,7936.47" convBoundary="0.00,-0.00,2964.43,10348.61" origBoundary="-0.062136,-0.071707,-0.035533,0.021794" projParameter="+proj=utm +zone=30 +ellps=WGS84 +datum=WGS84 +units=m +no_defs"/>

    <poly id="-186" type="unknown" color="51,128,255" fill="0" layer="-1.00" shape="9.26,9238.66 1486.16,9237.28 2963.59,9235.90"/>
    <poly id="-188" type="unknown" color="51,128,255" fill="0" layer="-1.00" shape="2963.87,9974.09 1486.84,9975.56 9.55,9976.83"/>
    <poly id="-190" type="unknown" color="51,128,255" fill="0" layer="-1.00" shape="2962.89,8497.70 1485.47,8499.08 8.56,8500.48"/>
    <poly id="-192" type="unknown" color="51,128,255" fill="0" layer="-1.00" shape="0.00,2.91 0.38,376.51 0.54,729.48 0.72,1114.68 1.30,1486.45 1.88,1852.86 2.26,2207.44 2.65,2592.59 3.01,2957.18 3.39,3330.78 3.54,3683.75 3.70,4068.95 4.28,4440.72 4.85,4807.13 5.30,5161.05 5.68,5546.20 6.04,5910.79 6.40,6284.39 6.55,6637.36 6.70,7022.56 7.27,7394.33 7.83,7760.74 8.19,8115.32 8.56,8500.48 8.91,8865.06 9.26,9238.66 9.40,9591.63 9.55,9976.83 10.10,10348.60 1487.18,10346.42 2964.43,10344.23 2963.87,9974.09 2963.73,9587.24 2963.59,9235.90 2963.23,8862.36 2962.89,8497.70 2962.52,8112.14 2962.15,7757.94 2961.59,7389.89 2961.03,7019.75 2960.87,6632.89 2960.73,6281.55 2960.37,5908.02 2960.01,5543.35 2959.63,5157.80 2959.17,4804.26 2958.60,4436.21 2958.03,4066.07 2957.86,3679.21 2957.71,3327.87 2957.34,2954.34 2956.97,2589.67 2956.58,2204.12 2956.20,1849.92 2955.63,1481.86 2955.04,1111.72 2954.87,724.87 2954.71,373.53 2954.33,-0.00"/>
    <poly id="-194" type="unknown" color="51,128,255" fill="0" layer="-1.00" shape="9.40,9591.63 1486.49,9589.43 2963.73,9587.24"/>
    <poly id="-196" type="unknown" color="51,128,255" fill="0" layer="-1.00" shape="8.91,8865.06 1485.81,8864.85 2963.23,8862.36"/>
    <poly id="-198" type="unknown" color="51,128,255" fill="0" layer="-1.00" shape="8.19,8115.32 1485.11,8113.72 2962.52,8112.14"/>
    <poly id="-200" type="unknown" color="51,128,255" fill="0" layer="-1.00" shape="7.27,7394.33 1484.43,7392.12 2961.59,7389.89"/>
    <poly id="-202" type="unknown" color="51,128,255" fill="0" layer="-1.00" shape="2960.01,5543.35 1482.67,5544.77 5.68,5546.20"/>
    <poly id="-204" type="unknown" color="51,128,255" fill="0" layer="-1.00" shape="6.55,6637.36 1483.71,6635.01 2960.87,6632.89"/>
    <poly id="-206" type="unknown" color="51,128,255" fill="0" layer="-1.00" shape="7.83,7760.74 1484.78,7760.89 2962.15,7757.94"/>
    <poly id="-208" type="unknown" color="51,128,255" fill="0" layer="-1.00" shape="6.04,5910.79 1483.02,5910.07 2960.37,5908.02"/>
    <poly id="-210" type="unknown" color="51,128,255" fill="0" layer="-1.00" shape="5.30,5161.05 1482.30,5161.57 2959.63,5157.80"/>
    <poly id="-212" type="unknown" color="51,128,255" fill="0" layer="-1.00" shape="6.40,6284.39 1483.38,6282.97 2960.73,6281.55"/>
    <poly id="-214" type="unknown" color="51,128,255" fill="0" layer="-1.00" shape="2961.03,7019.75 1484.08,7021.25 6.70,7022.56"/>
    <poly id="-216" type="unknown" color="51,128,255" fill="0" layer="-1.00" shape="0.38,376.51 1477.60,375.02 2954.71,373.53"/>
    <poly id="-218" type="unknown" color="51,128,255" fill="0" layer="-1.00" shape="1477.23,1.61 1477.60,375.02 1477.95,727.28 1478.34,1113.30 1478.71,1484.15 1479.07,1852.94 1479.42,2205.61 1479.80,2591.13 1480.16,2955.75 1480.53,3329.33 1480.87,3682.41 1481.25,4067.61 1481.61,4439.13 1481.96,4806.58 1482.30,5161.57 1482.67,5544.77 1483.02,5910.07 1483.38,6282.97 1483.71,6635.01 1484.08,7021.25 1484.43,7392.12 1484.78,7760.89 1485.11,8113.72 1485.47,8499.08 1485.81,8864.85 1486.16,9237.28 1486.49,9589.43 1486.84,9975.56 1487.18,10346.42"/>
    <poly id="-220" type="unknown" color="51,128,255" fill="0" layer="-1.00" shape="2955.04,1111.72 1478.34,1113.30 0.72,1114.68"/>
    <poly id="-222" type="unknown" color="51,128,255" fill="0" layer="-1.00" shape="3.39,3330.78 1480.53,3329.33 2957.71,3327.87"/>
    <poly id="-224" type="unknown" color="51,128,255" fill="0" layer="-1.00" shape="2958.03,4066.07 1481.25,4067.61 3.70,4068.95"/>
    <poly id="-226" type="unknown" color="51,128,255" fill="0" layer="-1.00" shape="4.28,4440.72 1481.61,4439.13 2958.60,4436.21"/>
    <poly id="-228" type="unknown" color="51,128,255" fill="0" layer="-1.00" shape="2956.97,2589.67 1479.80,2591.13 2.65,2592.59"/>
    <poly id="-230" type="unknown" color="51,128,255" fill="0" layer="-1.00" shape="3.54,3683.75 1480.87,3682.41 2957.86,3679.21"/>
    <poly id="-232" type="unknown" color="51,128,255" fill="0" layer="-1.00" shape="4.85,4807.13 1481.96,4806.58 2959.17,4804.26"/>
    <poly id="-234" type="unknown" color="51,128,255" fill="0" layer="-1.00" shape="3.01,2957.18 1480.16,2955.75 2957.34,2954.34"/>
    <poly id="-236" type="unknown" color="51,128,255" fill="0" layer="-1.00" shape="2.26,2207.44 1479.42,2205.61 2956.58,2204.12"/>
    <poly id="-238" type="unknown" color="51,128,255" fill="0" layer="-1.00" shape="1.30,1486.45 1478.71,1484.15 2955.63,1481.86"/>
    <poly id="-240" type="unknown" color="51,128,255" fill="0" layer="-1.00" shape="0.54,729.48 1477.95,727.28 2954.87,724.87"/>
    <poly id="-242" type="unknown" color="51,128,255" fill="0" layer="-1.00" shape="1.88,1852.86 1479.07,1852.94 2956.20,1849.92"/>
    <poly id="-244" type="unknown" color="51,128,255" fill="0" layer="-1.00" shape="0.00,2.91 1477.23,1.61 2954.33,-0.00"/>
</additional>
