<?xml version="1.0" encoding="UTF-8"?>

<!-- generated on Wed Apr 20 15:29:39 2016 by SUMO polyconvert Version 0.25.0D
<?xml version="1.0" encoding="UTF-8"?>

<configuration xmlns:xsi="http://www.w3.org/2001/XMLSchema-instance" xsi:noNamespaceSchemaLocation="http://sumo.dlr.de/xsd/polyconvertConfiguration.xsd">

    <input>
        <net-file value="map.roads.xml"/>
        <osm-files value="map.osm"/>
        <type-file value="typemap.xml"/>
    </input>

    <output>
        <output-file value="map.poly.xml"/>
    </output>

    <processing>
        <ignore-errors value="true"/>
        <poi-layer-offset value="5"/>
    </processing>

</configuration>
-->

<additional xmlns:xsi="http://www.w3.org/2001/XMLSchema-instance" xsi:noNamespaceSchemaLocation="http://sumo.dlr.de/xsd/additional_file.xsd">
    <location netOffset="-446143.40,-5029884.95" convBoundary="-1585.18,-3961.75,2887.91,2684.14" origBoundary="-75.708590,45.384680,-75.651687,45.444680" projParameter="+proj=utm +zone=18 +ellps=WGS84 +datum=WGS84 +units=m +no_defs"/>

    <poly id="-39728" type="parking" color="184,184,179" fill="1" layer="0.00" shape="121.47,1119.61 131.29,1102.46 206.39,1145.18 196.57,1162.33 121.47,1119.61"/>
    <poly id="-39730" type="parking" color="184,184,179" fill="1" layer="0.00" shape="604.70,1050.76 620.95,1024.91 612.90,1019.88 596.64,1045.72 604.70,1050.76"/>
    <poly id="-39732" type="parking" color="184,184,179" fill="1" layer="0.00" shape="501.99,975.78 511.20,960.17 503.55,955.69 494.34,971.29 501.99,975.78"/>
    <poly id="-39734" type="parking" color="184,184,179" fill="1" layer="0.00" shape="646.77,1163.62 657.77,1146.84 646.01,1139.18 635.01,1155.96 646.77,1163.62"/>
    <poly id="-39736" type="parking" color="184,184,179" fill="1" layer="0.00" shape="700.29,978.27 713.12,956.87 718.03,959.80 705.20,981.19 700.29,978.27"/>
    <poly id="-39738" type="parking" color="184,184,179" fill="1" layer="0.00" shape="973.55,1319.62 955.55,1309.26 945.77,1303.62 961.13,1277.15 988.90,1293.15 973.55,1319.62"/>
    <poly id="-39740" type="parking" color="184,184,179" fill="1" layer="0.00" shape="426.65,987.34 436.54,970.86 397.17,947.38 390.59,958.35 421.32,976.68 418.01,982.19 426.65,987.34"/>
    <poly id="-39742" type="parking" color="184,184,179" fill="1" layer="0.00" shape="452.87,1028.62 428.07,1014.45 432.13,1007.38 456.93,1021.55 452.87,1028.62"/>
    <poly id="-39744" type="parking" color="184,184,179" fill="1" layer="0.00" shape="339.38,920.48 293.92,893.79 291.94,897.14 288.34,895.02 281.22,907.06 285.30,909.46 282.44,914.30 289.31,918.33 296.29,906.52 334.40,928.91 339.38,920.48"/>
    <poly id="-39746" type="parking" color="184,184,179" fill="1" layer="0.00" shape="378.63,1106.34 427.63,1134.62 424.97,1139.21 375.96,1110.94 378.63,1106.34"/>
    <poly id="-39748" type="parking" color="184,184,179" fill="1" layer="0.00" shape="946.29,-10.05 956.44,-27.73 930.34,-42.60 916.33,-18.17 928.96,-10.98 932.74,-14.59 937.16,-15.11 946.29,-10.05"/>
    <poly id="-39750" type="parking" color="184,184,179" fill="1" layer="0.00" shape="968.90,-17.69 1000.59,-72.41 991.37,-77.72 959.68,-23.00 968.90,-17.69"/>
    <poly id="-39752" type="parking" color="184,184,179" fill="1" layer="0.00" shape="391.77,1200.04 404.42,1178.07 419.53,1186.72 408.19,1206.37 403.84,1203.88 402.50,1206.19 391.77,1200.04"/>
    <poly id="-39754" type="parking" color="184,184,179" fill="1" layer="0.00" shape="225.18,1449.70 229.62,1442.43 212.76,1432.21 208.31,1439.48 225.18,1449.70"/>
    <poly id="-39756" type="parking" color="184,184,179" fill="1" layer="0.00" shape="138.23,1453.19 152.04,1460.68 158.46,1448.92 144.66,1441.44 139.12,1451.57 138.23,1453.19"/>
    <poly id="-39758" type="parking" color="184,184,179" fill="1" layer="0.00" shape="331.60,977.43 346.01,984.99 350.85,975.83 336.44,968.27 331.60,977.43"/>
    <poly id="-39760" type="parking" color="184,184,179" fill="1" layer="0.00" shape="331.23,970.73 352.60,934.79 341.90,928.47 320.53,964.41 331.23,970.73"/>
    <poly id="-39762" type="parking" color="184,184,179" fill="1" layer="0.00" shape="580.95,28.78 618.83,49.72 636.08,18.74 622.69,11.35 631.07,-3.70 573.33,-35.62 559.28,-10.38 570.56,-4.14 576.23,-14.35 598.19,-2.20 580.95,28.78"/>
    <poly id="-39764" type="parking" color="184,184,179" fill="1" layer="0.00" shape="305.78,599.96 271.57,580.42 297.73,534.94 306.63,540.02 297.67,555.59 305.16,559.87 303.13,563.42 319.97,573.04 326.61,561.49 330.83,563.90 319.21,584.11 315.96,582.26 305.78,599.96"/>
    <poly id="-39766" type="parking" color="184,184,179" fill="1" layer="0.00" shape="414.96,511.97 442.53,461.73 420.42,449.68 392.85,499.92 414.96,511.97"/>
    <poly id="-39768" type="parking" color="184,184,179" fill="1" layer="0.00" shape="717.98,17.60 702.72,8.55 706.18,2.75 699.02,-1.49 704.94,-11.40 727.36,1.87 717.98,17.60"/>
    <poly id="-39770" type="parking" color="184,184,179" fill="1" layer="0.00" shape="638.67,1125.12 652.30,1098.93 637.39,1091.23 623.75,1117.41 638.67,1125.12"/>
    <poly id="-39772" type="unknown" color="51,128,255" fill="0" layer="-1.00" shape="253.06,1666.80 271.59,1635.68 286.87,1644.65 269.30,1675.47"/>
    <poly id="-39774" type="parking" color="184,184,179" fill="1" layer="0.00" shape="314.57,1492.29 321.89,1478.66 327.28,1481.52 319.96,1495.16 314.57,1492.29"/>
    <poly id="-39776" type="parking" color="184,184,179" fill="1" layer="0.00" shape="328.02,560.97 341.27,538.31 363.51,551.23 350.26,573.89 328.02,560.97"/>
    <poly id="-39778" type="parking" color="184,184,179" fill="1" layer="0.00" shape="1056.98,1013.69 1072.89,986.98 1087.91,995.87 1072.00,1022.57 1056.98,1013.69"/>
    <poly id="-39780" type="parking" color="184,184,179" fill="1" layer="0.00" shape="542.80,1103.05 557.15,1079.36 535.66,1066.43 521.31,1090.12 542.80,1103.05"/>
    <poly id="-39782" type="parking" color="184,184,179" fill="1" layer="0.00" shape="516.45,1612.39 545.08,1629.38 550.10,1620.66 554.60,1613.59 525.48,1596.02 520.46,1604.72 516.45,1612.39"/>
    <poly id="-39784" type="parking" color="184,184,179" fill="1" layer="0.00" shape="570.09,1540.04 622.50,1571.52 631.82,1555.44 594.20,1532.87 597.19,1527.22 585.47,1520.68 581.44,1528.17 570.09,1540.04"/>
    <poly id="-39786" type="parking" color="184,184,179" fill="1" layer="0.00" shape="540.30,973.36 550.14,958.36 553.84,960.79 544.00,975.77 540.30,973.36"/>
    <poly id="-39788" type="parking" color="184,184,179" fill="1" layer="0.00" shape="889.77,1363.68 903.08,1340.40 875.16,1324.56 859.45,1352.07 880.89,1364.23 883.30,1360.01 889.77,1363.68"/>
    <poly id="-39790" type="parking" color="184,184,179" fill="1" layer="0.00" shape="710.58,764.06 696.35,756.71 714.47,721.89 721.58,725.56 710.33,747.17 717.45,750.85 710.58,764.06"/>
    <poly id="-39792" type="parking" color="184,184,179" fill="1" layer="0.00" shape="631.33,728.51 587.41,702.15 596.49,687.13 640.40,713.48 631.33,728.51"/>
    <poly id="-39794" type="parking" color="184,184,179" fill="1" layer="0.00" shape="606.83,145.07 620.95,120.68 604.31,111.12 606.58,107.20 610.83,109.64 627.32,81.17 621.62,77.90 588.74,134.68 606.83,145.07"/>
    <poly id="-39796" type="parking" color="184,184,179" fill="1" layer="0.00" shape="589.45,733.75 563.22,719.36 574.38,699.15 600.61,713.53 589.45,733.75"/>
    <poly id="-39798" type="parking" color="184,184,179" fill="1" layer="0.00" shape="552.68,574.89 527.66,559.74 535.97,546.11 560.98,561.28 552.68,574.89"/>
    <poly id="-39800" type="parking" color="184,184,179" fill="1" layer="0.00" shape="561.97,553.16 583.04,518.58 586.97,520.96 565.90,555.54 561.97,553.16"/>
    <poly id="-39802" type="parking" color="184,184,179" fill="1" layer="0.00" shape="1009.06,1422.49 1016.41,1408.91 1005.03,1402.81 997.69,1416.40 1009.06,1422.49"/>
    <poly id="-39804" type="parking" color="184,184,179" fill="1" layer="0.00" shape="1015.46,1448.29 1000.53,1439.90 1005.80,1430.58 1020.73,1438.98 1015.46,1448.29"/>
    <poly id="-39806" type="parking" color="184,184,179" fill="1" layer="0.00" shape="173.99,1604.07 231.05,1520.17 255.49,1536.04 192.33,1627.27 173.99,1604.07"/>
    <poly id="-39808" type="parking" color="184,184,179" fill="1" layer="0.00" shape="885.83,1267.81 902.16,1239.44 893.83,1234.17 880.68,1255.20 886.27,1258.39 881.29,1265.54 885.83,1267.81"/>
    <poly id="-39810" type="parking" color="184,184,179" fill="1" layer="0.00" shape="850.84,279.45 861.91,286.32 892.11,237.97 871.29,225.05 856.30,249.03 866.06,255.08 863.25,259.58 850.84,279.45"/>
    <poly id="-39812" type="parking" color="184,184,179" fill="1" layer="0.00" shape="368.09,564.12 394.88,579.90 381.64,602.81 354.65,586.83 368.09,564.12"/>
    <poly id="-39814" type="parking" color="184,184,179" fill="1" layer="0.00" shape="294.00,1693.18 299.22,1686.06 308.20,1669.00 309.34,1659.70 288.14,1647.74 290.14,1643.68 263.23,1627.95 249.84,1651.10 255.55,1654.29 251.55,1661.40 274.58,1674.35 276.38,1670.69 284.33,1675.47 278.94,1686.43 294.00,1693.18"/>
    <poly id="-39816" type="parking" color="184,184,179" fill="1" layer="0.00" shape="798.18,689.16 805.85,676.30 782.95,662.74 775.28,675.59 798.18,689.16"/>
    <poly id="-39818" type="parking" color="184,184,179" fill="1" layer="0.00" shape="333.81,1026.25 307.64,1011.10 314.42,999.45 340.60,1014.62 333.81,1026.25"/>
    <poly id="-39820" type="parking" color="184,184,179" fill="1" layer="0.00" shape="628.24,472.38 645.57,443.30 662.38,453.25 645.04,482.33 628.24,472.38"/>
    <poly id="-39822" type="landuse" color="194,194,130" fill="1" layer="-4.00" shape="432.45,193.14 405.17,177.46 408.08,172.43 389.27,161.63 424.30,104.53 445.58,117.14 438.75,129.12 461.34,142.52 432.45,193.14"/>
    <poly id="-39824" type="parking" color="184,184,179" fill="1" layer="0.00" shape="286.08,1094.26 232.87,1063.69 240.41,1050.64 252.57,1057.64 259.74,1045.25 254.57,1042.27 277.40,1002.81 286.08,1007.79 269.56,1036.36 282.69,1043.91 279.49,1049.43 303.90,1063.47 286.08,1094.26"/>
    <poly id="-39826" type="parking" color="184,184,179" fill="1" layer="0.00" shape="1036.03,960.08 1049.32,936.67 1071.91,949.42 1058.62,972.82 1036.03,960.08"/>
    <poly id="-39828" type="parking" color="184,184,179" fill="1" layer="0.00" shape="565.09,606.65 570.71,596.34 573.06,597.60 577.53,589.39 583.25,592.49 573.15,611.01 565.09,606.65"/>
    <poly id="-39830" type="parking" color="184,184,179" fill="1" layer="0.00" shape="369.44,1554.22 381.65,1531.93 384.30,1533.38 372.10,1555.67 369.44,1554.22"/>
    <poly id="-39832" type="parking" color="184,184,179" fill="1" layer="0.00" shape="351.72,1559.16 376.84,1515.29 405.39,1531.52 383.22,1570.25 377.62,1567.06 374.59,1572.36 366.99,1568.03 369.68,1563.32 367.86,1562.28 365.24,1566.85 351.72,1559.16"/>
    <poly id="-39834" type="amenity" color="255,230,230" fill="1" layer="-8.00" shape="305.58,1060.51 312.28,1064.38 315.00,1059.70 308.29,1055.83 305.58,1060.51"/>
    <poly id="-39834#1" type="building" color="242,191,191" fill="1" layer="-7.00" shape="305.58,1060.51 312.28,1064.38 315.00,1059.70 308.29,1055.83 305.58,1060.51"/>
    <poly id="-39836" type="building" color="242,191,191" fill="1" layer="-7.00" shape="341.42,616.96 346.91,607.26 356.11,612.44 350.61,622.14 341.42,616.96"/>
    <poly id="-39838" type="amenity" color="255,230,230" fill="1" layer="-8.00" shape="1272.46,589.85 1255.84,580.31 1262.36,569.03 1274.92,576.25 1271.48,582.21 1275.54,584.54 1272.46,589.85"/>
    <poly id="-39838#1" type="building" color="242,191,191" fill="1" layer="-7.00" shape="1272.46,589.85 1255.84,580.31 1262.36,569.03 1274.92,576.25 1271.48,582.21 1275.54,584.54 1272.46,589.85"/>
    <poly id="-39840" type="amenity" color="255,230,230" fill="1" layer="-8.00" shape="1283.02,571.40 1285.87,566.75 1280.72,563.61 1281.97,561.57 1277.54,558.86 1273.44,565.53 1263.88,559.68 1261.16,564.11 1276.58,573.52 1279.28,569.12 1283.02,571.40"/>
    <poly id="-39840#1" type="building" color="242,191,191" fill="1" layer="-7.00" shape="1283.02,571.40 1285.87,566.75 1280.72,563.61 1281.97,561.57 1277.54,558.86 1273.44,565.53 1263.88,559.68 1261.16,564.11 1276.58,573.52 1279.28,569.12 1283.02,571.40"/>
    <poly id="-39842" type="building" color="242,191,191" fill="1" layer="-7.00" shape="218.83,1427.00 223.77,1430.01 229.73,1419.97 224.52,1417.26 218.83,1427.00"/>
    <poly id="-39844" type="building" color="242,191,191" fill="1" layer="-7.00" shape="470.48,1014.88 440.72,998.28 448.06,985.21 452.42,987.63 453.46,985.79 463.25,991.26 462.23,993.08 467.81,996.19 468.80,994.44 478.82,1000.03 470.48,1014.88"/>
    <poly id="-39846" type="building" color="242,191,191" fill="1" layer="-7.00" shape="1162.15,119.25 1167.74,109.26 1178.28,115.12 1172.68,125.11 1162.15,119.25"/>
    <poly id="-39848" type="building" color="242,191,191" fill="1" layer="-7.00" shape="738.73,1212.73 748.77,1218.81 758.49,1202.86 748.45,1196.78 738.73,1212.73"/>
    <poly id="-39850" type="building" color="242,191,191" fill="1" layer="-7.00" shape="1175.78,97.34 1180.31,89.70 1190.12,95.48 1184.78,104.48 1178.20,100.60 1179.00,99.24 1175.78,97.34"/>
    <poly id="-39852" type="building" color="242,191,191" fill="1" layer="-7.00" shape="925.47,942.87 933.03,930.37 914.05,919.24 906.08,932.06 925.47,942.87"/>
    <poly id="-39854" type="building" color="242,191,191" fill="1" layer="-7.00" shape="1153.97,133.03 1159.79,123.11 1170.65,129.43 1164.84,139.35 1153.97,133.03"/>
    <poly id="-39856" type="building" color="242,191,191" fill="1" layer="-7.00" shape="207.66,1420.73 206.82,1422.21 217.98,1428.51 218.83,1427.00 223.60,1418.61 212.46,1412.31 207.66,1420.73"/>
    <poly id="-39858" type="building" color="242,191,191" fill="1" layer="-7.00" shape="578.75,1027.42 557.73,1015.50 567.12,999.07 588.13,1011.00 578.75,1027.42"/>
    <poly id="-39860" type="building" color="242,191,191" fill="1" layer="-7.00" shape="1444.84,192.23 1449.87,183.76 1461.74,190.76 1456.72,199.22 1444.84,192.23"/>
    <poly id="-39862" type="building" color="242,191,191" fill="1" layer="-7.00" shape="1363.72,173.16 1368.60,165.31 1376.11,169.95 1371.23,177.79 1363.72,173.16"/>
    <poly id="-39864" type="building" color="242,191,191" fill="1" layer="-7.00" shape="77.93,1331.18 80.87,1332.61 80.47,1334.50 84.48,1336.77 97.97,1343.76 130.44,1361.88 124.03,1373.44 105.67,1361.69 104.01,1363.79 90.52,1356.37 70.88,1341.27 77.93,1331.18"/>
    <poly id="-39866" type="building" color="242,191,191" fill="1" layer="-7.00" shape="1378.99,164.92 1387.09,151.70 1379.42,147.03 1371.32,160.25 1378.99,164.92"/>
    <poly id="-39868" type="building" color="242,191,191" fill="1" layer="-7.00" shape="1313.91,119.05 1319.60,109.62 1333.99,118.22 1328.30,127.67 1313.91,119.05"/>
    <poly id="-39870" type="building" color="242,191,191" fill="1" layer="-7.00" shape="1303.80,113.04 1309.39,104.10 1318.66,108.84 1312.86,118.51 1303.80,113.04"/>
    <poly id="-39872" type="building" color="242,191,191" fill="1" layer="-7.00" shape="1232.97,74.04 1239.43,62.88 1290.90,92.48 1282.60,106.81 1274.06,101.91 1275.89,98.73 1232.97,74.04"/>
    <poly id="-39874" type="building" color="242,191,191" fill="1" layer="-7.00" shape="1194.25,91.31 1199.04,83.90 1189.98,79.69 1185.93,85.96 1194.25,91.31"/>
    <poly id="-39876" type="building" color="242,191,191" fill="1" layer="-7.00" shape="282.11,1386.45 288.58,1375.00 283.52,1372.16 284.42,1370.56 290.09,1373.76 297.28,1361.03 292.32,1358.24 291.28,1355.54 284.60,1351.63 283.81,1352.69 280.41,1350.73 281.13,1349.53 275.80,1346.47 275.01,1347.73 269.94,1344.34 269.72,1343.02 263.92,1339.43 263.20,1340.62 257.06,1337.04 249.14,1350.67 280.57,1368.28 279.64,1369.69 273.98,1366.46 267.69,1376.90 271.08,1378.74 270.34,1380.06 282.11,1386.45"/>
    <poly id="-39878" type="building" color="242,191,191" fill="1" layer="-7.00" shape="198.08,1232.34 205.09,1220.98 214.44,1226.71 218.80,1219.65 205.86,1211.72 204.74,1213.52 188.25,1203.41 189.16,1201.93 183.53,1198.48 179.10,1205.65 179.07,1207.10 177.22,1210.48 175.53,1210.78 172.02,1216.89 174.76,1218.56 173.92,1219.97 195.16,1232.04 195.80,1230.91 198.08,1232.34"/>
    <poly id="-39880" type="building" color="242,191,191" fill="1" layer="-7.00" shape="186.69,1408.13 207.66,1420.73 212.46,1412.31 213.42,1411.22 192.45,1398.62 186.69,1408.13"/>
    <poly id="-39882" type="building" color="242,191,191" fill="1" layer="-7.00" shape="676.24,1276.25 625.38,1246.65 629.18,1239.83 628.12,1239.21 650.55,1201.49 652.55,1202.58 655.29,1197.67 687.00,1216.08 675.44,1236.08 670.48,1233.40 677.72,1220.80 657.79,1208.94 638.25,1242.46 681.04,1267.68 676.24,1276.25"/>
    <poly id="-39882#1" type="tourism" color="207,245,201" fill="1" layer="-5.00" shape="676.24,1276.25 625.38,1246.65 629.18,1239.83 628.12,1239.21 650.55,1201.49 652.55,1202.58 655.29,1197.67 687.00,1216.08 675.44,1236.08 670.48,1233.40 677.72,1220.80 657.79,1208.94 638.25,1242.46 681.04,1267.68 676.24,1276.25"/>
    <poly id="-39884" type="amenity" color="255,230,230" fill="1" layer="-8.00" shape="396.40,578.88 384.51,572.06 387.60,566.70 374.00,558.90 388.55,533.73 395.36,537.64 391.94,543.55 406.17,551.71 407.95,548.63 412.26,551.11 409.85,555.29 411.59,556.29 404.09,569.25 402.51,568.33 396.40,578.88"/>
    <poly id="-39884#1" type="building" color="242,191,191" fill="1" layer="-7.00" shape="396.40,578.88 384.51,572.06 387.60,566.70 374.00,558.90 388.55,533.73 395.36,537.64 391.94,543.55 406.17,551.71 407.95,548.63 412.26,551.11 409.85,555.29 411.59,556.29 404.09,569.25 402.51,568.33 396.40,578.88"/>
    <poly id="-39886" type="building" color="242,191,191" fill="1" layer="-7.00" shape="647.93,553.15 661.39,530.30 646.54,521.62 633.09,544.48 647.93,553.15"/>
    <poly id="-39888" type="amenity" color="255,230,230" fill="1" layer="-8.00" shape="1092.80,1290.21 1094.78,1286.77 1095.86,1287.38 1102.90,1275.19 1092.73,1269.37 1085.92,1281.20 1089.95,1283.51 1087.75,1287.32 1092.80,1290.21"/>
    <poly id="-39888#1" type="building" color="242,191,191" fill="1" layer="-7.00" shape="1092.80,1290.21 1094.78,1286.77 1095.86,1287.38 1102.90,1275.19 1092.73,1269.37 1085.92,1281.20 1089.95,1283.51 1087.75,1287.32 1092.80,1290.21"/>
    <poly id="-39890" type="amenity" color="255,230,230" fill="1" layer="-8.00" shape="1110.34,1320.17 1119.32,1305.49 1117.21,1304.20 1125.24,1291.06 1111.09,1282.48 1102.13,1297.16 1110.22,1302.07 1109.43,1303.36 1105.09,1300.73 1097.85,1312.60 1110.34,1320.17"/>
    <poly id="-39890#1" type="building" color="242,191,191" fill="1" layer="-7.00" shape="1110.34,1320.17 1119.32,1305.49 1117.21,1304.20 1125.24,1291.06 1111.09,1282.48 1102.13,1297.16 1110.22,1302.07 1109.43,1303.36 1105.09,1300.73 1097.85,1312.60 1110.34,1320.17"/>
    <poly id="-39892" type="building" color="242,191,191" fill="1" layer="-7.00" shape="791.47,529.17 795.41,522.34 785.70,516.46 781.67,523.81 791.47,529.17"/>
    <poly id="-39894" type="building" color="242,191,191" fill="1" layer="-7.00" shape="658.18,1361.99 662.03,1355.53 659.17,1353.84 662.60,1348.08 665.30,1349.70 678.76,1327.17 692.94,1335.58 679.65,1357.85 685.24,1361.17 688.03,1356.52 723.03,1377.29 719.93,1382.49 725.15,1385.59 739.33,1361.86 753.09,1370.02 732.14,1405.09 718.42,1396.97 721.62,1391.61 716.25,1388.43 714.63,1391.13 679.67,1370.38 680.87,1368.36 675.26,1365.03 672.12,1370.27 658.18,1361.99"/>
    <poly id="-39896" type="building" color="242,191,191" fill="1" layer="-7.00" shape="386.06,921.00 391.31,911.75 376.65,903.47 371.39,912.73 386.06,921.00"/>
    <poly id="-39898" type="building" color="242,191,191" fill="1" layer="-7.00" shape="102.26,1433.61 115.68,1440.98 120.71,1432.41 107.64,1424.79 102.26,1433.61"/>
    <poly id="-39900" type="building" color="242,191,191" fill="1" layer="-7.00" shape="874.64,1247.72 882.44,1252.36 890.92,1237.88 882.86,1233.27 874.64,1247.72"/>
    <poly id="-39902" type="building" color="242,191,191" fill="1" layer="-7.00" shape="481.24,93.51 477.35,88.36 478.33,86.22 475.67,82.62 486.13,65.06 480.53,43.93 488.29,41.95 494.74,38.20 498.27,42.01 499.97,41.77 506.18,66.31 522.90,74.24 517.70,83.30 522.60,86.09 520.20,89.41 515.05,87.61 512.93,89.55 490.80,77.16 481.24,93.51"/>
    <poly id="-39904" type="building" color="242,191,191" fill="1" layer="-7.00" shape="463.78,121.79 475.55,103.57 454.18,89.85 450.44,96.36 443.30,109.04 442.88,109.72 454.27,116.18 463.78,121.79"/>
    <poly id="-39906" type="building" color="242,191,191" fill="1" layer="-7.00" shape="359.69,364.86 362.78,366.54 361.44,369.09 377.39,378.66 379.25,375.92 382.68,377.77 389.57,365.63 386.48,363.95 388.50,360.36 372.22,351.66 370.02,354.73 366.42,352.90 359.69,364.86"/>
    <poly id="-39908" type="building" color="242,191,191" fill="1" layer="-7.00" shape="801.21,446.65 808.41,434.74 826.55,445.62 823.99,449.85 827.94,452.23 825.89,455.62 822.16,453.39 819.57,457.67 801.21,446.65"/>
    <poly id="-39910" type="building" color="242,191,191" fill="1" layer="-7.00" shape="869.48,1258.53 881.29,1265.54 886.27,1258.39 880.68,1255.20 879.65,1256.98 872.80,1253.17 869.48,1258.53"/>
    <poly id="-39912" type="building" color="242,191,191" fill="1" layer="-7.00" shape="180.53,1406.09 187.01,1395.70 192.45,1398.62 186.69,1408.13 186.09,1409.48 180.53,1406.09"/>
    <poly id="-39914" type="building" color="242,191,191" fill="1" layer="-7.00" shape="940.54,1335.16 945.28,1327.02 948.42,1328.84 957.06,1314.00 971.13,1322.14 957.74,1345.12 940.54,1335.16"/>
    <poly id="-39916" type="building" color="242,191,191" fill="1" layer="-7.00" shape="368.13,911.49 351.70,902.74 357.25,892.37 373.68,901.12 368.13,911.49"/>
    <poly id="-39918" type="building" color="242,191,191" fill="1" layer="-7.00" shape="181.53,868.09 172.47,882.34 203.32,901.15 212.39,886.92 181.53,868.09"/>
    <poly id="-39920" type="building" color="242,191,191" fill="1" layer="-7.00" shape="275.58,911.73 267.24,907.24 252.59,934.20 260.93,938.70 275.58,911.73"/>
    <poly id="-39922" type="building" color="242,191,191" fill="1" layer="-7.00" shape="596.28,1068.95 603.76,1073.22 603.03,1074.50 611.84,1079.52 612.59,1078.23 619.64,1082.24 608.03,1102.43 601.54,1098.73 601.34,1099.08 591.85,1093.66 592.22,1093.03 584.85,1088.83 596.28,1068.95"/>
    <poly id="-39924" type="building" color="242,191,191" fill="1" layer="-7.00" shape="138.60,1392.15 144.22,1382.63 152.03,1387.04 152.22,1389.45 158.65,1392.66 154.22,1400.97 138.60,1392.15"/>
    <poly id="-39926" type="building" color="242,191,191" fill="1" layer="-7.00" shape="1073.25,1380.40 1030.79,1356.76 1019.31,1377.24 1025.47,1380.67 1027.74,1376.61 1032.44,1379.22 1035.32,1374.08 1066.92,1391.69 1073.25,1380.40"/>
    <poly id="-39928" type="building" color="242,191,191" fill="1" layer="-7.00" shape="685.16,1330.22 704.61,1341.72 706.65,1338.30 705.45,1337.59 708.72,1332.11 709.73,1332.71 713.64,1326.14 712.62,1325.54 716.04,1319.80 716.72,1320.22 718.67,1316.94 699.05,1305.34 697.04,1308.71 698.28,1309.43 694.81,1315.26 694.02,1314.79 690.09,1321.40 691.18,1322.06 688.41,1326.71 687.55,1326.21 685.16,1330.22"/>
    <poly id="-39930" type="building" color="242,191,191" fill="1" layer="-7.00" shape="379.59,1217.00 341.46,1194.40 349.22,1181.40 387.35,1204.01 379.59,1217.00"/>
    <poly id="-39932" type="building" color="242,191,191" fill="1" layer="-7.00" shape="634.87,1152.99 610.51,1138.40 622.05,1119.25 645.02,1133.01 643.44,1135.64 644.83,1136.47 634.87,1152.99"/>
    <poly id="-39934" type="building" color="242,191,191" fill="1" layer="-7.00" shape="708.92,1296.83 727.63,1264.67 715.95,1257.92 697.25,1290.07 708.92,1296.83"/>
    <poly id="-39936" type="building" color="242,191,191" fill="1" layer="-7.00" shape="190.93,1136.38 133.38,1102.94 142.63,1087.14 200.17,1120.58 190.93,1136.38"/>
    <poly id="-39938" type="building" color="242,191,191" fill="1" layer="-7.00" shape="657.18,627.05 666.46,633.03 653.03,656.99 643.54,651.84 657.18,627.05"/>
    <poly id="-39940" type="building" color="242,191,191" fill="1" layer="-7.00" shape="770.80,556.46 775.39,548.69 751.03,534.39 746.43,542.18 770.80,556.46"/>
    <poly id="-39942" type="building" color="242,191,191" fill="1" layer="-7.00" shape="596.08,684.53 611.67,693.86 623.91,673.57 608.32,664.22 596.08,684.53"/>
    <poly id="-39944" type="building" color="242,191,191" fill="1" layer="-7.00" shape="669.69,662.63 680.03,644.73 694.44,653.00 684.10,670.90 669.69,662.63"/>
    <poly id="-39946" type="building" color="242,191,191" fill="1" layer="-7.00" shape="573.73,750.41 583.32,734.29 556.37,718.38 546.79,734.51 573.73,750.41"/>
    <poly id="-39948" type="building" color="242,191,191" fill="1" layer="-7.00" shape="1012.94,1287.51 1028.12,1261.81 1042.68,1270.34 1029.01,1293.51 1029.57,1293.84 1028.07,1296.39 1012.94,1287.51"/>
    <poly id="-39950" type="building" color="242,191,191" fill="1" layer="-7.00" shape="285.83,765.98 296.58,746.82 265.24,729.34 254.49,748.50 285.83,765.98"/>
    <poly id="-39952" type="building" color="242,191,191" fill="1" layer="-7.00" shape="441.06,795.19 454.17,802.65 443.77,820.80 430.66,813.33 441.06,795.19"/>
    <poly id="-39954" type="building" color="242,191,191" fill="1" layer="-7.00" shape="352.49,763.74 360.47,750.27 397.69,772.16 389.71,785.64 352.49,763.74"/>
    <poly id="-39956" type="building" color="242,191,191" fill="1" layer="-7.00" shape="315.62,760.68 331.52,769.95 319.45,790.52 303.54,781.26 315.62,760.68"/>
    <poly id="-39958" type="amenity" color="255,230,230" fill="1" layer="-8.00" shape="892.47,899.69 961.48,932.26 991.87,877.83 929.62,838.10 892.47,899.69"/>
    <poly id="-39958#1" type="building" color="242,191,191" fill="1" layer="-7.00" shape="892.47,899.69 961.48,932.26 991.87,877.83 929.62,838.10 892.47,899.69"/>
    <poly id="-39960" type="building" color="242,191,191" fill="1" layer="-7.00" shape="287.86,816.05 295.55,803.38 303.73,808.32 301.71,811.65 306.81,814.73 303.92,819.50 300.02,817.14 297.25,821.71 287.86,816.05"/>
    <poly id="-39962" type="building" color="242,191,191" fill="1" layer="-7.00" shape="344.64,801.25 339.61,798.14 345.55,788.63 360.83,798.11 354.96,807.50 350.61,804.80 349.45,806.67 343.54,803.01 344.64,801.25"/>
    <poly id="-39964" type="building" color="242,191,191" fill="1" layer="-7.00" shape="1011.19,1425.71 1018.31,1413.66 1047.83,1430.99 1029.99,1461.17 1017.94,1454.10 1028.66,1435.97 1011.19,1425.71"/>
    <poly id="-39966" type="building" color="242,191,191" fill="1" layer="-7.00" shape="919.87,1360.44 914.94,1368.34 907.32,1384.41 895.98,1400.58 891.33,1408.36 877.20,1400.11 882.20,1392.25 885.21,1385.69 891.45,1373.85 900.92,1360.83 905.74,1351.57 919.87,1360.44"/>
    <poly id="-39968" type="building" color="242,191,191" fill="1" layer="-7.00" shape="152.39,1484.14 158.09,1487.10 161.96,1479.66 156.26,1476.71 152.39,1484.14"/>
    <poly id="-39970" type="building" color="242,191,191" fill="1" layer="-7.00" shape="156.84,1489.66 167.38,1495.64 168.39,1493.97 173.62,1485.41 177.11,1479.67 165.72,1473.70 156.84,1489.66"/>
    <poly id="-39972" type="building" color="242,191,191" fill="1" layer="-7.00" shape="168.39,1493.97 175.37,1497.46 180.12,1488.63 173.62,1485.41 168.39,1493.97"/>
    <poly id="-39974" type="building" color="242,191,191" fill="1" layer="-7.00" shape="173.03,1500.18 178.49,1503.20 187.47,1487.05 182.01,1484.03 173.03,1500.18"/>
    <poly id="-39976" type="building" color="242,191,191" fill="1" layer="-7.00" shape="177.95,1505.17 185.76,1510.12 192.59,1499.41 197.29,1492.71 187.47,1487.05 177.95,1505.17"/>
    <poly id="-39978" type="building" color="242,191,191" fill="1" layer="-7.00" shape="189.41,1506.99 197.29,1492.71 205.77,1497.36 197.89,1511.64 189.41,1506.99"/>
    <poly id="-39980" type="building" color="242,191,191" fill="1" layer="-7.00" shape="306.08,546.58 322.94,556.73 344.54,521.08 340.89,511.70 333.09,508.38 327.32,505.92 330.91,497.57 316.63,488.97 303.55,510.55 321.41,521.29 306.08,546.58"/>
    <poly id="-39982" type="building" color="242,191,191" fill="1" layer="-7.00" shape="790.72,720.23 799.28,725.82 791.14,738.22 787.52,735.86 788.81,733.91 783.44,731.33 790.72,720.23"/>
    <poly id="-39984" type="building" color="242,191,191" fill="1" layer="-7.00" shape="856.61,639.51 874.10,610.08 887.71,618.12 870.21,647.55 856.61,639.51"/>
    <poly id="-39986" type="building" color="242,191,191" fill="1" layer="-7.00" shape="908.09,632.45 921.80,640.91 900.91,677.49 885.53,669.66 908.09,632.45"/>
    <poly id="-39988" type="building" color="242,191,191" fill="1" layer="-7.00" shape="899.44,514.74 906.97,502.28 884.06,488.54 876.54,501.02 899.44,514.74"/>
    <poly id="-39990" type="building" color="242,191,191" fill="1" layer="-7.00" shape="828.02,512.66 837.81,497.34 830.05,492.41 824.63,500.87 820.47,498.23 825.62,490.17 818.37,485.57 808.84,500.49 828.02,512.66"/>
    <poly id="-39992" type="building" color="242,191,191" fill="1" layer="-7.00" shape="794.42,665.67 801.67,653.79 793.13,648.33 785.67,660.10 794.42,665.67"/>
    <poly id="-39994" type="building" color="242,191,191" fill="1" layer="-7.00" shape="823.25,719.49 830.61,707.24 817.73,699.55 810.37,711.80 823.25,719.49"/>
    <poly id="-39996" type="building" color="242,191,191" fill="1" layer="-7.00" shape="810.21,732.68 818.43,737.21 812.22,748.03 803.68,743.29 810.21,732.68"/>
    <poly id="-39998" type="building" color="242,191,191" fill="1" layer="-7.00" shape="523.38,614.16 536.41,621.60 532.52,628.38 519.49,620.92 523.38,614.16"/>
    <poly id="-40000" type="building" color="242,191,191" fill="1" layer="-7.00" shape="543.91,635.44 552.08,639.86 557.66,629.62 549.49,625.20 543.91,635.44"/>
    <poly id="-40002" type="building" color="242,191,191" fill="1" layer="-7.00" shape="534.68,629.29 543.37,634.21 548.67,624.90 539.99,619.98 534.68,629.29"/>
    <poly id="-40004" type="building" color="242,191,191" fill="1" layer="-7.00" shape="541.45,652.35 546.74,643.49 535.29,636.70 530.00,645.56 541.45,652.35"/>