<?xml version="1.0" encoding="UTF-8"?>

<!-- generated on Wed Apr 20 15:29:39 2016 by SUMO duarouter Version 0.25.0D
<?xml version="1.0" encoding="UTF-8"?>

<configuration xmlns:xsi="http://www.w3.org/2001/XMLSchema-instance" xsi:noNamespaceSchemaLocation="http://sumo.dlr.de/xsd/duarouterConfiguration.xsd">

    <input>
        <net-file value="map.roads.xml"/>
        <trip-files value="trips.trips.xml"/>
    </input>

    <output>
        <output-file value="map.routes.xml"/>
    </output>

    <processing>
        <ignore-errors value="true"/>
    </processing>

    <time>
        <begin value="0.0"/>
        <end value="15.0"/>
    </time>

    <report>
        <no-warnings value="true"/>
        <no-step-log value="true"/>
    </report>

</configuration>
-->

<routes xmlns:xsi="http://www.w3.org/2001/XMLSchema-instance" xsi:noNamespaceSchemaLocation="http://sumo.dlr.de/xsd/routes_file.xsd">
    <vehicle id="0" depart="0.00">
        <route edges="76423562#0 76423562#1 356298255 258787159 76442074#0 76442074#1 -76442203 361431608#2 361431608#3 361431608#4 -76442583#1 -76442583#0 -76441586#1 -76441586#0 -76441807#3 -76441807#2 -76441807#1 -76441807#0 -76443156#3 76442090#0 76445041#7 76445041#8 76441807#1 76441807#2 76441807#3 367636038#8 76441586#1 76442583#0 76442583#1 301178990 -301178992 -152689419 -335820716 -76442074#2 -76442203 -76441440 -76443145 -76441876 -76441958 367636038#4 367636038#5 367636038#6 367636038#7 -76441807#3 -76441807#2 -76441807#1 -76441807#0 -76443156#3 76442090#0 76442090#1 76442090#2 76441164#7 76441164#8 76441807#3 367636038#8 76441586#1 76442583#0 76442583#1 301178990 -301178992 -152689419 76441531#0 76441531#1 76441437#0 76441437#1 -76441202#1 -76441878#0 -361434078 361431608#0 -76442079#3 -76442079#2 -76442079#1 -76442079#0 367636038#2 367636038#3 -76443355#3 -76443355#2 76443372#5 76441385#2 76441385#3 -367636038#4 76441958 76441141#5 76442708 76443176#1 -76441876 -76441958 -367636038#3 -367636038#2 -367636038#1 -367636038#0 -362066957 -76441787 76441773 362066956 362066953 362066954 361291094 76442870 76419221#0 76419221#1 76419221#2 76419487 -76441878#1 -76441878#0 76442074#0 76442074#1 76442074#2 -76441811#1 -76441811#0 362066955#4 -76441495#1 76443176#0 76443176#1 -76441876 76441141#5 76442708 76443176#1 -76441876 -76441958 -367636038#3 -367636038#2 -367636038#1 -367636038#0 -362066957 -76441787 -321748518 -76441065#1 76443372#0 76443372#1 76442443#1 -76441164#1 -76441164#0 76441065#2 76441773 362066956 362066953 362066954 361291094 76442870 76419221#0 76419221#1 76419221#2 76419221#3 305807458#1 305807458#2 305807458#3 152627336 139098090#1 -152627338#1 -152627338#0 -76441437#4 -76441437#3 -76441437#2 -76441437#1 -76441437#0 -76441531#1 -76441531#0 152689419 301178992 -301178990 -76442583#1 -76442583#0 -76441586#1 -76441586#0 -76441807#3 -76441807#2 -76441807#1 -76445041#8 76441067#1 76443372#8 76441807#2 76441807#3 367636038#8 76441586#1 76442583#0 76442583#1 301178990 -301178992 -152689419 76441531#0 76441531#1 76441437#0 76441437#1 76441437#2 76441437#3 -76441694#1 -76441878#2 -76441878#1 -76441878#0 -361434078 -76441184#2 -362066955#0 -77699442 76443312#3 300719826 361291094 76442870 76419221#0 128476280 76423562#1 76442265 -361291094 -362066954 -362066953 -362066956 -76441773 -321748518 -76441065#1 76443372#0 76443372#1 76443372#2 76442648#1 76442648#2 -367636038#0 -362066957 -76441787 76441773 362066956 362066953 362066954 76441526 -76441184#2 362066955#1 -76442079#2 -76442079#1 76441141#4 76441876 76443145 76441440 76442203 -76442074#1 -76442074#0 76441878#0 76441202#1 -76441437#1 -76441437#0 76441531#2 76441531#3 76441531#4 76441365#1 76441365#2 76441365#3 76441234#3 -76443587 76441365#3 -76441234#2 -76441234#1 -76441234#0 -301178991#0 -301178990 -76442583#1 -76442583#0 -76441586#1 -76441586#0 -76441807#3 -76441164#8 -76441164#7 -76441164#6 76441385#3 -367636038#4 76441958 76441876 76443145 76441440 361431608#2 361431608#3 361431608#4 301178990 -301178992 -152689419 76441531#0 76441531#1 76441531#2 76441531#3 -152673567#1 -152673567#0 -76441234#1 -76441234#0 -301178991#0 -301178990 -76442583#1 -362066955#5 -362066955#4 -362066955#3 -76443145 -76441876 76441141#5 76442708 76441127 76441811#0 76441811#1 335820716 152689419 301178992 -301178990 -76442583#1 -76442583#0 -76441586#1 -76441586#0 -76441807#3 -76441807#2 -76441807#1 -76441807#0 -76443156#3 -76443156#2 -76443156#1 -76443156#0 76443747#0 76443747#1 76443747#2 76443747#3 367636038#3 367636038#4 367636038#5 367636038#6 367636038#7 -76441807#3 -76441164#8 -76441164#7 -76441164#6 -76441164#5 -76441164#4 -76441164#3 -76441164#2 -76441164#1 -76441164#0 -76441065#1 -76441065#0 76445041#0 76445041#1 76442443#0 -76443372#1 -76443372#0 76441065#1 76441065#2 76441773 362066956 362066953 362066954 361291094 76442870 76419221#0 76419221#1 76419221#2 76419221#3 -305807458#0 76423562#0 76423562#1 356298255 258787159 76442074#0 76442074#1 76442074#2 -76441811#1 -76441811#0 362066955#4 362066955#5 76442583#1 301178990 -301178992 -152689419 -335820716 -76442074#2 -76442203 -76441440 -76443145 -76441876 -76441958 367636038#4 367636038#5 367636038#6 367636038#7 -76441807#3 -76441807#2 -76441807#1 -76445041#8 -76441067#0 76443156#4 76441807#1 76441807#2 -76441164#8 -76441164#7 -76442090#2 -76443372#6 -76441385#1 -76445041#5 -76445041#4 -76445041#3 -76445041#2 -76445041#1 -76445041#0 76441065#0 76441065#1 76441065#2 76441773 362066956 362066953 362066954 361291094 76442870 76419221#0 76419221#1 76441202#0 76441878#1 -76441662 76419221#3 -305807458#0 76423562#0 76423562#1 76442265 -361291094 -362066954 -362066953 -362066956 -76441773 76441787 362066957 367636038#0 367636038#1 367636038#2 367636038#3 367636038#4 -76441385#3 -76441385#2 76443372#6 76442090#2 76441164#7 76441164#8 76441807#3 367636038#8 76441586#1 76442583#0 -362066955#5 -76441495#1 76441669 -76441586#1 -76441586#0 -76441807#3 -76441807#2 -76441807#1 -76445041#8 -76445041#7 -76445041#6 -76445041#5 -76445041#4 76443747#1 76443372#4 76443372#5 -76441385#1 76445041#6 76445041#7 76445041#8 76441807#1 76441807#2 76441807#3 367636038#8 76441586#1 -76441669 -76441495#0 76441141#7 -76441586#0 -367636038#7 -367636038#6 -367636038#5 -367636038#4 -367636038#3 -367636038#2 76442079#0 76441141#4 76441876 76443176#2 76443176#3 76443176#4 -362066956 -76441773 76441787 362066957 367636038#0 367636038#1 367636038#2 367636038#3 -76443355#3 -76443355#2 -76443355#1 -76445041#4 76443747#1 76443747#2 76443747#3 -367636038#2 -367636038#1 -367636038#0 76442601 76441184#0 76441184#1 76441184#2 361434078 76441878#0 76441202#1 -76441437#1 -76441437#0 -76441531#1 -76441531#0 152689419 301178992 -301178990 -76442583#1 -76442583#0 -76441586#1 -76441586#0 -76441807#3 -76441807#2 -76441807#1 -76445041#8 -76445041#7 -76445041#6 76441385#1 76443372#6 76442090#2 -76441164#6 -76441385#2 76443372#6 76443372#7 76443372#8 76441807#2 76441807#3 367636038#8 76441586#1 76442583#0 76442583#1 301178990 -301178992 -152689419 76441531#0 76441531#1 76441531#2 76441531#3 -152673567#1 76441482#0 -76441365#1 -76441531#4 -76441531#3 -76441531#2 -76441531#1 -76441531#0 152689419 301178992 -301178990 -76442583#1 -76442583#0 -76441586#1 -76441586#0 -76441807#3 -76441807#2 -76441807#1 -76441807#0 -76443156#3 76442090#0 76445041#7 76445041#8 76441807#1 76441807#2 76441807#3 -367636038#7 -367636038#6 -367636038#5 -367636038#4 -367636038#3 -367636038#2 -367636038#1 -367636038#0 -362066957 -76441787 76441773 362066956 362066953 362066954 361291094 76442870 76419221#0 76419221#1 76441202#0 -76441878#0 -361434078 -76441184#2 -76441184#1 -76441184#0 -76442601 -362066957 76443031 -76441164#0 76441065#2 76441787 362066957 367636038#0 367636038#1 367636038#2 367636038#3 367636038#4 367636038#5 367636038#6 367636038#7 -76441807#3 -76441807#2 -76443372#8 -76441067#1 76445041#8 76441807#1 76441807#2 76441807#3 -367636038#7 -367636038#6 -367636038#5 -367636038#4 -367636038#3 -367636038#2 -367636038#1 -367636038#0 76442601 76441184#0 76441184#1 76441184#2 361431608#0 -76442079#3 -362066955#1 -362066955#0 -362066953 -362066956 -76441773 76441787 362066957 367636038#0 367636038#1 367636038#2 367636038#3 -76443355#3 -76443355#2 76443372#5 76441385#2 76441385#3 -367636038#4 -367636038#3 -367636038#2 -367636038#1 -367636038#0 -362066957 -76441787 76441773 362066956 76443176#5 76443312#2 77699442 -362066953 -362066956 76441141#1 76441141#2 -76442601 367636038#0 367636038#1 367636038#2 367636038#3 -76443355#3 -76443355#2 76443372#5 76441385#2 -76441164#5 -76441164#4 -76441164#3 -76441164#2 -76441164#1 -76441164#0 -76441065#1 -76442457 -76445817 76444561 76442325 76441065#2 76441787 362066957 367636038#0 367636038#1 367636038#2 367636038#3 367636038#4 367636038#5 367636038#6 367636038#7 -76441807#3 -76441807#2 -76441807#1 -76445041#8 -76445041#7 -76445041#6 -76445041#5 76443355#1 -76443372#4 -76443372#3 76442648#1 -76441164#2 76442443#2 367636038#0 367636038#1 367636038#2 367636038#3 367636038#4 -76441385#3 -76441385#2 -76443372#5 76443355#2 76441164#5 76441164#6 76441164#7 -76441067#2 76443372#8 76441807#2 76441807#3 -367636038#7 -367636038#6 -367636038#5 -367636038#4 -367636038#3 -367636038#2 -367636038#1 -367636038#0 76442601 76441141#3 -76442079#0 367636038#2 367636038#3 76441958 76441876 76443145 76441440 361431608#2 361431608#3 361431608#4 301178990 -301178992 -152689419 76441531#0 76441531#1 76441531#2 76441531#3 76441531#4 76441531#5 76441531#6 139098080 232381920 -305807458#4 -305807458#3 -305807458#2 -305807458#1 -305807458#0 76423562#0 76423562#1 356298255 258787159 76442074#0 76442074#1 76442074#2 -76441811#1 361431608#3 -76441495#2 -362066955#4 76441811#0 76441811#1 -76442074#2 -76442074#1 -76442074#0 -361434078 -76441184#2 -362066955#0 -362066953 -362066956 -76441773 -321748518 -76441065#1 -76442457 -76445817 76444561 76442325 76441065#2 76441787 362066957 367636038#0 367636038#1 367636038#2 367636038#3 367636038#4 367636038#5 367636038#6 367636038#7 367636038#8 76441586#1 76442583#0 76442583#1 301178990 301178991#0 76441234#0 76441234#1 76441234#2 76441234#3 -76443587 76441365#3 -76441234#2 -76441234#1 -76441234#0 -301178991#0 -301178990 -76442583#1 -76442583#0 -76441586#1 -76441586#0 -76441807#3 -76441164#8 -76441164#7 -76441164#6 76441385#3 367636038#5 367636038#6 367636038#7 367636038#8 76441586#1 76442583#0 76442583#1 361431608#5 -76442464#0 76442583#1 301178990 76442235#0 76442235#1 76441531#1 76441531#2 76441531#3 -152673567#1"/>
    </vehicle>
    <vehicle id="1" depart="0.10">
        <route edges="-76445041#3 -76445041#2 -76445041#1 -76445041#0 76441065#0 76441065#1 76441065#2 76441773 362066956 362066953 362066954 361291094 76442870 76419221#0 76419221#1 76419221#2 76419221#3 305807458#1 139108153 -232381925 -76441437#4 -76441437#3 -76441437#2 -76441202#1 -76441878#0 76442074#0 76442074#1 -76442203 361431608#2 76441811#1 -76442074#2 -76442074#1 -76442074#0 -258787159 76419221#0 76419221#1 76419221#2 76419221#3 -305807458#0 76423562#0 76423562#1 76442265 -361291094 -362066954 -362066953 -362066956 -76441773 76441787 362066957 367636038#0 367636038#1 367636038#2 367636038#3 367636038#4 367636038#5 367636038#6 367636038#7 -76441807#3 -76441807#2 -76443372#8 -76441067#1 76445041#8 76441807#1 76441807#2 76441807#3 -367636038#7 -367636038#6 -367636038#5 -367636038#4 76441958 76441876 76443145 362066955#3 76441811#0 76441811#1 335820716 76441531#0 76442018 -76442235#0 -301178990 -76442583#1 -76442583#0 -76441586#1 -76441586#0 -76441807#3 -76441807#2 -76443372#8 -76441067#1 76445041#8 -76441807#0 76441067#0 76445041#8 76441807#1 76441807#2 76441807#3 367636038#8 76441586#1 76442583#0 76442583#1 301178990 -301178992 -152689419 76441531#0 76441531#1 76441531#2 76441531#3 76441531#4 76441365#1 76441365#2 76441365#3 -76441234#2 -76441234#1 -76441234#0 -301178991#0 -301178990 -76442583#1 -76442583#0 -76441586#1 -76441586#0 -76441807#3 -76441164#8 -76441164#7 76442090#3 367636038#6 -76441067#3 -76441067#2 76443372#8 76441807#2 76441807#3 367636038#8 76441586#1 76442583#0 76442583#1 301178990 -301178992 -152689419 76441531#0 76441531#1 76441437#0 76441437#1 76441437#2 76441437#3 76441437#4 152627338#0 152627338#1 139098090#2 -76441531#6 -76441531#5 -76441531#4 -76441531#3 -76441531#2 -76441531#1 -76441531#0 152689419 301178992 -301178990 -76442583#1 -76442583#0 -76441586#1 -76441586#0 -367636038#7 -367636038#6 -367636038#5 -367636038#4 -367636038#3 -76443747#3 -76443747#2 -76443747#1 76445041#4 76443355#1 76443355#2 76443355#3 76441958 76441141#5 76441141#6 76441495#0 76441669 -76441586#1 -76441586#0 -76441807#3 -76441807#2 -76441807#1 -76445041#8 -76445041#7 -76445041#6 -76445041#5 -76443355#0 76443156#1 76443156#2 76442090#0 76442090#1 -76443372#6 -76441385#1 76445041#6 76442090#1 76442090#2 76442090#3 367636038#6 367636038#7 -76441807#3 -76441807#2 -76441807#1 -76445041#8 -76445041#7 -76445041#6 -76441385#0 76443156#2 76443156#3 76443156#4 76441807#1 76441807#2 76441807#3 367636038#8 76441586#1 76442583#0 76442583#1 -361431608#4 -361431608#3 -361431608#2 -76441440 -76443145 -76441876 -76441958 367636038#4 -76441385#3 -76441164#5 76443355#3 -367636038#3 -367636038#2 -367636038#1 -367636038#0 76442601 76441184#0 76441184#1 76441184#2 -76441526 -362066954 362066955#0 362066955#1 76442079#3 -361431608#0 -76441184#2 -76441184#1 76443176#4 362066953 362066954 361291094 76442870 76419221#0 76419221#1 76419221#2 76419221#3 305807458#1 305807458#2 305807458#3 152627336 139098090#1 139098090#2 -76441531#6 -76441531#5 76441365#1 76441482#1 -76442150 -76441531#5 -76441531#4 -76441531#3 -76441531#2 -76441531#1 -76441531#0 152689419 301178992 -301178990 -76442583#1 -76442583#0 -76441586#1 -76441586#0 -367636038#7 -367636038#6 -367636038#5 -367636038#4 -367636038#3 -367636038#2 -367636038#1 -367636038#0 -362066957 -76441787 76441773 362066956 362066953 362066954 76441526 -76441184#2 -76441184#1 -76441184#0 -76442601 367636038#0 367636038#1 367636038#2 367636038#3 367636038#4 367636038#5 367636038#6 -76441067#3 76441164#8 76441807#3 -367636038#7 -76441067#3 -76441067#2 76443372#8 76441807#2 76441807#3 367636038#8 76441586#1 76442583#0 362066955#6 -361431608#5 -76442583#1 -76442583#0 -76441586#1 -76441586#0 -76441807#3 -76441807#2 -76441807#1 -76441807#0 -76443156#3 -76443156#2 -76443156#1 76443355#0 76443355#1 76443355#2 76441164#5 76441164#6 76442090#3 -367636038#5 -367636038#4 -367636038#3 -367636038#2 -367636038#1 -367636038#0 -76442443#2 76441164#2 76442648#2 -367636038#0 76442601 76441184#0 76443176#4 -362066956 -76441773 76441787 362066957 367636038#0 -76442648#2 -76442648#1 -76443372#2 76442443#1 76442443#2 367636038#0 367636038#1 76442079#0 76442079#1 76442079#2 76442079#3 361923985#0 -76442074#0 -258787159 76419221#0 128476280 76423562#1 76442265 -361291094 -362066954 -362066953 -362066956 76441141#1 76441141#2 -76442601 -362066957 -76441787 76441773 76441141#1 76441141#2 -76442601 -362066957 -76441787 -321748518 -76441065#1 -76441065#0 76445041#0 76445041#1 76445041#2 76442648#0 -76443372#2 -76443372#1 -76443372#0 76441065#1 76441065#2 76441773 362066956 362066953 362066954 361291094 76442870 76419221#0 76419221#1 76441202#0 76441202#1 76441437#2 76441437#3 -76441694#1 -76441878#2 -76441878#1 -76441878#0 76442074#0 76442074#1 -76442203 -76441440 362066955#3 76441811#0 361431608#3 361431608#4 361431608#5 -76442464#0 -76442583#0 -76441586#1 -76441586#0 -76441807#3 -76441807#2 -76443372#8 -76441067#1 76445041#8 76441807#1 76441807#2 -76441164#8 -76441164#7 -76441164#6 -76441164#5 -76441164#4 -76441164#3 76442648#2 367636038#1 367636038#2 367636038#3 -76443355#3 -76443355#2 76443372#5 76441385#2 76441385#3 -367636038#4 -367636038#3 -367636038#2 -367636038#1 -367636038#0 -362066957 -76441787 -367636030 -310453592 76443312#0 76443312#1 76443312#2 77699442 -362066953 -362066956 -76441773 76441787 362066957 367636038#0 367636038#1 367636038#2 367636038#3 367636038#4 367636038#5 367636038#6 367636038#7 367636038#8 76441586#1 -76441669 -76441495#0 76441141#7 -76441586#0 -76441807#3 -76441807#2 -76441807#1 -76445041#8 76441067#1 76443372#8 76441807#2 76441807#3 -367636038#7 -367636038#6 -367636038#5 -367636038#4 -367636038#3 -367636038#2 -367636038#1 -367636038#0 -362066957 -76441787 76441773 362066956 76443176#5 -76443312#1 -76443312#0 310453592 367636024 76441787 362066957 367636038#0 367636038#1 367636038#2 367636038#3 367636038#4 367636038#5 367636038#6 367636038#7 -76441807#3 -76441164#8 76441067#3 -367636038#6 -367636038#5 -367636038#4 -367636038#3 -367636038#2 -367636038#1 -76442648#2 76441164#3 76441164#4 76441164#5 76441164#6 76441164#7 76441164#8 76441807#3 -367636038#7 -367636038#6 -367636038#5 -367636038#4 -367636038#3 -367636038#2 -367636038#1 -367636038#0 76442601 76441184#0 76441184#1 76441184#2 361434078 76441878#0 -76441202#0 76419221#2 76419221#3 305807458#1 305807458#2 305807458#3 152627336 139098090#1 139098090#2 -76441531#6 -76441531#5 -76441531#4 -76441531#3 -76441531#2 -76441531#1 -76441531#0 152689419 301178992 -301178990 -76442583#1 -76442583#0 -76441586#1 -76441586#0 -76441807#3 -76441807#2 -76441807#1 -76441807#0 -76443156#3 -76443156#2 -76443156#1 -76443156#0 76443747#0 -76445041#3 -76445041#2 -76445041#1 -76445041#0 76441065#0 76441065#1 76441065#2 76441773 362066956 362066953 -77699442 76443312#3 300719826 -362066954 -362066953 -362066956 -76441773 76441787 362066957 367636038#0 367636038#1 367636038#2 367636038#3 367636038#4 367636038#5 367636038#6 367636038#7 -76441807#3 -76441807#2 -76441807#1 -76445041#8 -76441067#0 76443156#4 76441807#1 76441807#2 76441807#3 -367636038#7 -367636038#6 -367636038#5 -367636038#4 -367636038#3 -367636038#2 -367636038#1 -367636038#0 -362066957 -76441787 76441773 362066956 362066953 362066954 361291094 76442870 258787159 -361434078 -76441184#2 -76441184#1 -76441184#0 -76442601 367636038#0 367636038#1 367636038#2 367636038#3 367636038#4 367636038#5 367636038#6 367636038#7 -76441807#3 -76441807#2 -76441807#1 -76441807#0 -76443156#3 -76443156#2 76441385#0 76441385#1 76441385#2 76441385#3 -367636038#4 76441958 76441876 76443145 -362066955#2 -76442079#2 -76442079#1 -76442079#0 367636038#2 367636038#3 -76443355#3 -76443355#2 -76443355#1 -76443355#0 -76443156#0 76443747#0 76443747#1 76443747#2 76443747#3 367636038#3 76441958 76441876 76443145 76441440 361431608#2 76441811#1 -76442074#2 -76442203 -76441440 -76443145 -76441876 -76441958 -367636038#3 -76443747#3 -76443747#2 -76443747#1 -76443747#0 76443156#0 76443355#0 76443355#1 76443355#2 76443355#3 367636038#4 367636038#5 367636038#6 367636038#7 -76441807#3 -76441807#2 -76441807#1 -76445041#8 -76445041#7 -76445041#6 -76445041#5 76443355#1 76443355#2 76443355#3 76441958 76441876 76443145 76441440 -361431608#1 -361431608#0 -76441526 361291094 76442870 258787159 -361434078 -76441184#2 -76441184#1 -76441184#0 -76442601 367636038#0 367636038#1 367636038#2 367636038#3 367636038#4 367636038#5 367636038#6 367636038#7 -76441807#3 -76441807#2 -76443372#8 76441067#2 76441164#8 -76441807#2 -76441807#1 -76445041#8 -76445041#7 -76445041#6 -76445041#5 76443355#1 -76443372#4 -76443372#3 -76443372#2 -76443372#1 -76443372#0 -76441065#0 76445041#0 76445041#1 76442443#0 76442443#1 76442443#2 367636038#0 367636038#1 367636038#2 367636038#3 76441958 76441876 76443145 362066955#3 -76441127 76443176#1 -76441876 -76441958 367636038#4 -76441385#3 -76441385#2 -76441385#1 76445041#6 76442090#1 76443372#7 -76441067#1 76445041#8 76441807#1 76441807#2 -76441164#8 76441067#3 367636038#7 -76441807#3 -76441164#8 76441067#3 -367636038#6 -367636038#5 -367636038#4 -367636038#3 -367636038#2 -367636038#1 -367636038#0 -362066957 -76441787 -367636030 -310453592 76443312#0 76443312#1 76443312#2 77699442 362066955#0 362066955#1 -76442079#2 76443176#3 76443176#4 76443176#5 -76443312#1"/>
    </vehicle>
    <vehicle id="2" depart="0.20">