<?xml version="1.0"?>
<!-- generated on 2016-04-20 15:29:39.545778 by $Id: randomTrips.py 19495 2015-12-02 12:36:28Z behrisch $
  options: -n map.roads.xml <doubleminus>r map.routes.xml <doubleminus>begin 0 <doubleminus>end 15.00 <doubleminus>period 0.1 <doubleminus>min-distance 0 <doubleminus>fringe-factor 1 <doubleminus>intermediate 80 -l
-->
<trips>
    <trip id="0" depart="0.00" from="76423562#0" to="-152673567#1" via="361431608#2 76442090#0 -76442074#2 -76441807#0 76441164#7 76441531#0 361431608#0 -76443355#2 -76441876 -76441878#1 362066955#4 76441141#5 76443372#1 -152627338#1 76441067#1 -76441878#2 76443312#3 76423562#1 76442648#1 76442648#2 -76441184#2 76441141#4 76441878#0 76441234#3 76441385#3 361431608#3 -152673567#0 -76443145 -301178990 76443747#0 -76441807#3 -76441065#0 76423562#0 362066955#5 -76442074#2 76443156#4 76441807#2 -76441385#1 -76441662 -76441385#2 76442090#2 -362066955#5 76443747#1 76441807#1 367636038#8 -367636038#3 76441876 -76441773 -76443355#1 76441878#0 76441385#1 -76441385#2 -76441365#1 76442090#0 -76441878#0 76441065#2 -76441067#1 76441184#2 -362066955#0 76441385#2 77699442 76441141#2 76441385#2 76442325 -76445041#8 76443355#1 367636038#0 -76441385#2 76441164#6 76441807#2 -76442079#0 361431608#3 -305807458#1 -362066955#4 -361434078 76444561 76441234#3 76441385#3 361431608#5 76442235#1" />
    <trip id="1" depart="0.10" from="-76445041#3" to="-76443312#1" via="-76441202#1 76441811#1 76423562#0 76441807#1 362066955#3 -76442235#0 -76441067#1 -76441807#0 76441365#2 76442090#3 -76441067#2 152627338#0 -76441531#0 -76443747#1 76441495#0 -76443355#0 -76441385#1 -76441807#3 76443156#2 -361431608#2 76443355#3 -76441526 -361431608#0 362066953 -76442150 301178992 76441526 76441807#3 76441807#2 -361431608#5 76443355#0 76441164#6 -76442443#2 76443176#4 -76443372#2 76442079#2 76423562#1 76441773 76442648#0 76442648#0 76441437#3 76441811#0 361431608#5 76441807#1 76442648#2 -76443355#3 76441385#2 76443312#1 367636038#8 76441067#1 -76443312#0 76441067#3 -76442648#2 76441807#3 -76441202#0 305807458#3 -76443156#1 300719826 -76441067#0 258787159 -76441807#0 76441385#1 -362066955#2 76443747#0 76441811#1 -76443747#0 367636038#6 76443355#1 76441440 258787159 76441067#2 -76441807#1 76443355#1 76445041#0 362066955#3 -76441385#1 -76441067#1 -76441807#3 76443312#1 -76442079#2" />
    <trip id="2" depart="0.20" from="76445041#3" to="76441526" via="367636038#0 76442079#1 -305807458#1 362066955#3 76441531#5 76443355#3 -76441067#0 -76442074#0 -258787159 76443312#1 362066956 361431608#4 76443156#4 76441807#3 76443535#0 76441164#1 -76443156#0 76443535#0 361431608#0 -76441878#0 -76443355#1 -321748518 -305807458#3 76442648#2 -76443372#8 76441141#4 76443156#1 -76442464#0 76442150 76443747#3 -361431608#4 76442281 -76441065#1 76441811#0 -76441164#1 -76441385#1 -76445041#0 361431608#2 -76441067#1 76441482#0 -76441482#1 76441385#3 -76441164#2 -361923985#0 76443156#2 76441807#3 76442150 76443355#0 76443747#0 76441437#0 76441141#4 305807458#3 -76445041#2 -76443312#1 -76442325 -76441234#1 76441878#0 76445041#6 -305807458#1 367636038#8 76443535#1 361431608#4 -362066955#2 76443747#1 -362066956 76442074#0 -76443312#1 152627338#0 -76441904 -361923985#0 76441164#6 362066955#4 76441141#1 76441385#1 76423562#0 76442079#3 335820716 -76441495#0 -76441437#0 76441065#1" />
    <trip id="3" depart="0.30" from="76419221#0" to="-152673567#1" via="-76443747#1 -76443156#3 76441127 152627338#0 76444561 76442235#0 76443176#3 76442265 -76445041#2 -76441787 -310453592 -76441437#0 -76443355#0 301178992 76441164#4 -258787159 -76441876 76441065#0 -76442443#2 76441385#1 -76441164#7 76443156#2 -76442708 76442443#2 76442079#1 76441164#4 -76441878#1 76441495#2 362066954 -76443747#0 -76443156#2 -76441669 76441164#6 76441141#5 301178990 -76441669 -301178992 76419487 76442074#0 76443156#3 76442090#0 76441141#6 -335820716 -76441385#1 76441065#2 76441365#1 -76443145 76441878#2 -76441067#3 76441067#3 76423562#0 76443355#2 362066955#6 76443156#1 310453592 -76442648#0 76441495#1 -76443355#2 76443535#0 76442090#0 76441531#1 -76442443#2 -305807458#1 76441067#2 -76441662 -76441067#2 -76441184#2 76442090#0 -76443372#2 76443535#1 -76442443#1 76442870 -76443747#3 76441531#5 76442079#0 76443176#0 -76441807#2 76441807#2 -76441495#1 76441807#1" />
    <trip id="4" depart="0.40" from="-76442464#0" to="-76441531#6" via="76441807#3 305807458#3 -362066955#1 -76442079#1 -76442708 76441385#2 76442443#2 76419221#2 362066955#3 -76441067#1 76441385#1 300719826 76441694#1 76443176#4 76443176#3 -76441807#0 -76443372#3 -76441531#6 76423562#0 76441067#2 76442074#1 76441807#1 76441065#2 -305807458#3 76441526 -152673567#0 76441495#0 -367636038#7 76441495#2 -76441365#2 -76441385#1 361431608#2 -305807458#1 76441787 -76441437#0 76441065#2 77699442 76442079#0 76443156#4 -76443261 -76441107 76441234#3 -76443747#1 76441065#2 76441234#3 362066955#5 -76442648#0 76443747#3 -76442464#0 76441385#3 362066955#3 76441807#3 -76441437#0 76441065#2 -76445041#0 -76441586#0 -152627338#0 76423562#0 152673567#0 76442648#1 367636038#7 76441067#2 -362066955#5 76443747#2 76441482#2 76441807#3 76441773 362066955#1 -76441773 -301178991#0 76443176#4 -76441234#1 76441164#8 76443372#5 362066955#6 -76441067#0 76444561 -76441787 -77699442 76441437#4" />
    <trip id="5" depart="0.50" from="76443747#2" to="76443176#5" via="76443156#0 -76441164#1 76423562#0 76443176#2 -76442150 -76441067#1 -76441365#2 76441365#2 -76441437#2 76442281 362066955#2 -76443372#1 76441437#0 76441669 -76441531#0 76443355#2 -76441787 367636038#1 -76441067#2 -76442443#2 -76443372#5 -76441365#1 -76445041#3 76441878#0 76441202#1 76443747#1 361431608#4 -76445041#2 76441127 76441164#1 -367636030 76441234#3 -76445041#2 -76442079#2 76443372#5 76441811#0 76441531#0 76442090#2 305807458#3 -76441531#4 76441067#2 -76443261 76443156#4 76442090#1 76442090#3 76443312#3 361431608#0 76441495#1 -76441202#1 -76441067#2 -76441526 -76443372#0 152627338#0 -76442079#3 76442870 76445041#1 305807458#3 362066955#5 -76441878#0 -321748518 362066956 76441164#4 76445041#7 76441365#1 232381920 300719826 76442583#0 -76441437#3 76444561 76442079#3 -76442074#2 76442281 367636038#8 362066955#6 76443176#3 -76443372#0 -76441586#0 -367636038#6 76441202#0 -76443372#1" />
    <trip id="6" depart="0.60" from="76441385#2" to="-361431608#0" via="-76443261 -76441164#5 76442648#0 -76443355#3 76443156#1 -76445041#5 -76442090#2 76443747#1 76441164#7 76442079#0 -76441067#0 -76443747#3 361923985#0 76441526 362066957 76441067#2 258787159 76442018 76443156#4 -76443372#4 76441164#3 76441234#3 76441904 76441234#3 -76443156#0 76443176#0 76443372#5 362066955#6 -76441437#4 -76441385#2 -76443747#0 76442074#2 -76441067#3 152627338#0 361431608#0 76443747#2 -76441878#1 152627338#0 76442648#0 362066956 76443535#0 -76442648#2 258787159 76443355#3 258787159 -76441365#1 -76441437#0 76443312#2 -76441878#2 76441807#1 305807458#3 -76442090#1 -76441904 -305807458#3 -76442601 -367636038#0 76445041#4 -76441482#0 362066955#2 76443535#0 -76441437#0 -76441065#0 -76442090#3 76441141#5 76441531#2 76443747#0 -321748518 -76441437#0 -76443355#1 -76441807#3 76441067#0 76442601 335820716 76445041#1 -367636038#1 76445041#2 258787159 76443355#3 76441526 76441531#1" />
    <trip id="7" depart="0.70" from="305807458#3" to="76419221#0" via="-76443261 76442203 76441385#3 -76442203 -76441107 -76443156#1 361431608#0 76441807#1 76441904 -76441067#2 -362066955#3 76441065#0 76442090#3 362066955#4 76445041#5 -232381925 76441141#7 -76443372#7 -76441531#2 76443312#2 76441807#2 -76443747#3 152627338#0 305807458#3 76443312#0 -362066955#3 -76441807#2 76441526 76441365#2 76441127 76441164#2 -76441440 -362066957 301178990 -76441904 -76443372#0 -76443355#0 362066955#4 76442648#2 76441141#0 362066955#2 76441437#0 76423562#0 -76442583#1 -362066955#4 -310453592 76441067#0 -76445041#8 -76441437#0 -76445041#4 -305807458#1 76441385#1 76443372#0 -76443747#1 76443156#2 362066953 76441141#5 76441437#0 76441065#0 76443176#4 76443031 -76442150 -361431608#0 76423562#1 -76443747#1 -361431608#4 -76443587 -76442079#2 77699442 76442648#1 -76441437#0 76442648#1 -76443747#2 232381920 361431608#2 -76441067#1 -76441807#0 367636038#5 76442648#0 -76443312#2" />
    <trip id="8" depart="0.80" from="-76441365#1" to="76443156#2" via="-362066955#1 76441773 -76445041#6 -76441526 362066955#4 -152673567#1 367636038#4 -76443372#2 -76445041#5 76441065#0 76441531#0 -76443355#2 152627338#0 -76441065#1 -76443355#2 -361431608#1 -76441365#2 367636024 367636038#3 152627338#0 76441385#0 76441234#2 76443176#5 76441067#3 -76443156#0 362066954 76443312#2 -76441385#1 -76442074#2 -76441164#0 76442150 76441807#2 -76443156#1 -76441164#1 362066955#4 76443355#0 -305807458#1 76441385#1 76444561 -76443372#8 -76441807#3 -76442648#1 -76441365#3 -76441807#1 -76442464#0 76441141#3 76441437#0 -361923985#0 -152627338#0 76441526 -76441202#0 76442090#2 -76441807#3 76441365#1 -76442090#2 76441141#1 76443355#0 -76443587 -361431608#1 76441773 -76442074#2 76441526 -76441807#0 76441876 76423562#0 -76442601 232381925 76443156#4 76441385#0 -76441164#0 76443355#0 76441141#4 76443176#1 -76441164#3 -76441065#0 -76445041#5 -232381925 76443747#1 76443747#1 76441385#0" />
    <trip id="9" depart="0.90" from="-76441437#3" to="76443535#0" via="76443031 76443176#3 -76445041#3 362066955#4 -76441437#4 76442443#1 76442090#0 -76441669 76441876 76442648#1 76441065#2 76441065#1 76442443#0 -76441807#2 76443372#7 76441385#3 -76441164#4 -76442464#0 -76441107 76441365#1 76442648#1 76423562#1 -76441531#5 76442074#1 76442443#2 362066955#0 76443355#0 76443031 76441067#3 -76443747#2 -76441067#3 362066955#6 305807458#3 258787159 -76441586#1 -305807458#1 361431608#5 76441495#2 -76441067#2 -367636038#5 -367636038#1 -361431608#1 -76441807#0 76442074#2 76441184#0 -362066955#4 152627338#0 76443747#1 367636038#4 76442648#0 76441437#4 76442150 367636038#8 -76441807#2 76441234#3 76441234#1 76441067#1 -321748518 -76442443#2 -76441234#3 305807458#3 -76441531#2 -76441586#0 -361431608#3 -76441807#0 -152673567#1 -76441807#3 -76443156#0 -76442090#0 -76441065#0 -361431608#3 -76445041#5 -361431608#5 76442090#2 361431608#3 76443145 -301178992 -367636038#5 -76442601 76442090#2" />
    <trip id="10" depart="1.00" from="76443747#2" to="-76443372#0" via="335820716 -76441807#0 361431608#4 76441385#3 76441385#0 -76445041#5 -76443372#0 76441385#0 76441141#6 -76441437#0 76442090#2 76442708 76441526 -76441904 76441437#0 -76441807#0 -76443747#1 76442090#0 76441184#1 76443372#4 -76442457 301178992 76441385#3 -361431608#3 -76441437#0 -76442150 76441234#1 -76441526 76443535#0 76441958 76441141#0 76441495#0 76419487 -76441164#6 76443747#0 76423562#0 76442090#0 76441234#3 -76441876 76443176#2 367636038#3 -362066955#3 -76442648#2 362066954 76442648#1 76443355#0 76441365#1 76441164#8 -76441669 76443535#0 76441067#3 -76441067#2 -76441164#5 76441065#2 305807458#3 -76441164#3 76443355#1 76443747#0 76441141#1 76441807#2 -76441164#2 -361431608#0 76441385#0 76443747#1 -76441958 76441067#2 76442079#2 361431608#2 76441065#1 -362066955#1 76443535#1 -76443372#8 -76441107 76442090#0 361923985#0 76443176#4 305807458#3 76442150 -76441807#0 76441385#2" />
    <trip id="11" depart="1.10" from="77699442" to="76441141#6" via="76443145 76443747#3 -76441586#1 -76441067#3 76442443#0 -76441164#2 76445041#8 -76441904 232381925 -76442648#2 76441878#2 305807458#1 76443031 76443587 76441067#1 305807458#1 -76442601 76443031 -76441878#1 -76443355#3 -76441164#3 -305807458#3 76443355#0 -76441437#4 305807458#1 -76442079#0 -76441385#2 -362066955#2 76441141#1 -76442648#1 76442079#1 -76441811#0 -76441787 -362066955#4 -76441773 -321748518 76441234#2 76441807#2 76441164#7 -76441067#3 76441067#3 -76442443#2 -152627338#0 76419221#3 -76445041#4 76443355#0 76441234#1 -362066953 -76442074#0 76419221#3 -76443747#1 76441234#3 76441365#3 76442281 -76441787 -76442806 76441878#0 76442443#2 76419221#2 76441531#2 76441365#1 -76441067#2 76441440 76443372#7 -76443156#3 76423562#0 76442074#2 -76442090#3 76441807#1 -76441694#1 76441141#0 76443372#5 362066956 76441065#0 301178991#0 -152627338#0 76442090#2 76442648#2 -76441662 362066953" />
    <trip id="12" depart="1.20" from="-76441067#3" to="-367636038#4" via="76441067#1 76442235#1 -76442443#2 76443747#1 76441141#1 -76441807#3 76441495#2 76441526 76443176#1 76441141#0 367636038#5 -76441067#1 76443355#0 76442648#1 300719826 -361431608#5 -362066955#4 361431608#0 76443355#2 362066955#0 76441958 -76442464#0 -76441164#7 362066954 76442018 361431608#4 76443747#3 362066955#6 76442870 76441164#5 76441067#0 335820716 -152627338#0 367636038#5 76443747#1 76441385#2 76441067#0 76443587 -76441437#0 76443156#4 -76441385#1 76443747#1 76441807#1 -76443372#4 362066955#4 76442443#1 139108153 -76441385#2 -76441958 -76442648#2 -76441662 305807458#3 -76441067#3 -76441773 -76445041#7 -76441234#3 -76441586#0 -76441878#2 -76443372#0 -76441807#1 76443747#1 -76441482#0 -361431608#5 76443176#1 76443312#0 -76443156#2 76441495#0 -76442090#1 -76442090#0 362066955#0 -362066955#0 -76441807#0 76441531#2 -76442708 -76443747#3 367636038#3 76441385#0 76423562#1 362066955#1 -76441067#1" />
    <trip id="13" depart="1.30" from="-76441107" to="-76442443#1" via="152627336 258787159 -76441107 77699442 76423562#1 -305807458#1 76441141#3 -76441164#7 76443535#0 -258787159 76443355#3 76441065#2 139098090#2 -76442074#2 76443355#3 -76441669 76443747#1 76443156#1 152673567#1 -76443355#2 -76443355#2 76443312#2 362066955#6 -76441202#0 76441904 76423562#1 76442079#3 362066955#5 -76443355#0 76441807#1 76441811#1 -76443747#2 -76443747#1 76443156#1 -76441440 76443372#4 76441184#0 -305807458#1 76441141#0 76444561 -76442079#3 -76441164#0 76442708 76442648#1 -76443355#0 76441141#7 76442443#1 76441669 76441958 -152673567#0 -76445041#5 -152627338#0 -76443372#8 362066954 -76441437#0 76443031 -76442464#0 -76441385#0 305807458#1 76442648#2 76419221#0 -76441234#3 -76442325 -367636038#7 76441067#3 76441141#3 -76443747#0 76443176#1 76441127 -76441067#2 -76443355#0 -76443747#2 362066955#0 76441878#0 76442443#2 367636038#8 -76443355#3 76445041#1 76443312#2 76443372#8" />
    <trip id="14" depart="1.40" from="-305807458#3" to="76443747#2" via="76441482#2 152673567#1 -301178992 -76442648#2 76441531#5 -76443747#1 -76441385#3 76441141#5 76443747#2 76441878#2 362066954 -361431608#3 367636038#0 -76443747#3 -76443747#2 76441878#0 -76442235#0 -76442464#0 300719826 361431608#3 -76441495#2 -76442583#0 -76442464#0 76441385#0 76443535#0 -76443372#0 76442648#2 76441807#1 76441904 -76441878#0 76423562#1 76441437#0 232381920 152673567#1 77699442 -76441878#0 -76443355#2 76441141#5 76441065#0 76441184#0 76419487 76443312#2 362066955#4 76441234#3 -76442464#0 -76443145 76441067#1 -76441482#1 -76441482#1 362066957 76443355#1 -361431608#0 301178991#0 139108153 76443372#4 76442583#0 -301178990 76443145 76443747#2 -305807458#3 76441807#3 76441385#0 -152673567#1 -76442443#2 -76443372#8 -76441365#2 76441482#2 76442150 152627338#0 -76441067#0 -76443372#4 -76442090#3 -361431608#4 76441234#1 362066955#3 -76441531#5 76443535#1 -335820716 -76441807#1 -76441904" />
    <trip id="15" depart="1.50" from="-301178991#0" to="-76443261" via="76441878#2 -76441164#1 -76441807#0 -76443355#0 -76443355#0 -76443372#6 152673567#0 -76441807#3 76442090#3 -76441234#3 -76441164#2 -76443355#1 76441184#2 -76441065#1 76441495#2 76441586#1 76443587 -76442074#2 76445041#3 -76441067#1 76441437#0 76445041#6 76441234#3 76441164#5 362066955#5 361923985#0 -305807458#3 -362066956 76441531#5 152627338#0 76441385#2 76443587 -76441807#1 76442090#1 76443372#4 -76443372#3 361431608#0 -362066955#2 76441495#1 76442074#0 -77699442 76442074#2 76443535#0 76442648#0 -76441164#4 76442281 -152627338#0 367636038#6 76443434 -76443156#0 -76441365#2 76423562#1 -76443747#2 300719826 76441437#4 -76442090#2 76442079#3 -305807458#1 76441202#1 76441878#0 361434078 76443535#0 76441437#0 76444561 -76441065#1 -362066955#2 76441773 -76441495#2 -76442648#1 361923985#0 76442325 -76443747#2 76442090#0 -76443372#5 -76443372#8 76441141#5 76442074#1 76441141#4 361431608#1 -76441385#2" />
    <trip id="16" depart="1.60" from="76441065#1" to="361431608#4" via="-76441662 76441234#1 -76441234#0 305807458#3 -76442079#1 -76442090#3 -152627338#0 -76441385#0 -76441184#1 -76442443#0 301178991#0 -76441164#8 -76442464#0 -76441365#1 -76441067#0 76441385#3 -76445041#0 76442443#1 367636038#8 76441141#7 76441385#0 -76441904 -76442443#2 -76442806 76445041#3 -76441067#0 -76443355#0 76441958 -362066955#1 367636038#5 362066956 76441669 -76441958 76441141#7 76441437#0 76443176#1 76442281 76442443#0 76441065#2 362066955#4 76443587 76443372#2 -76443156#1 -76445041#8 76441385#3 76442079#2 76441437#2 305807458#3 -76442090#1 139098080 -362066957 -361431608#5 -76441184#1 76441495#1 362066955#5 76441067#0 76443176#4 76441495#2 -76441164#0 76441787 77699442 76442074#0 76442203 301178990 -362066955#5 -76441526 -76442443#1 76442074#0 76442281 76442074#2 76441365#1 -76443372#8 -76442090#2 76442325 362066955#4 76442443#0 76441878#1 76443747#0 -76443312#1 76442601" />
    <trip id="17" depart="1.70" from="76442443#2" to="-76442481" via="76441437#0 76442870 76442443#0 -76443372#5 76443355#0 76441669 76442090#1 367636038#6 -76441807#3 -152627338#0 76441437#0 -76442648#0 76441482#2 -76441437#0 76443372#3 -76443372#2 -76441878#0 -76441878#0 -301178990 76441067#1 -76441437#0 -76441202#0 -76442601 76443312#0 76441141#5 -76443355#2 -76441067#1 -77699442 -76441184#0 76442235#0 361923985#0 76441164#5 -321748518 76441437#0 76443176#2 -76442708 76442074#2 76445041#0 -152627338#0 -76442074#1 76441904 76441878#0 76442090#3 76443372#5 -76442443#0 76443372#4 76441164#0 152673567#0 76443176#1 76443031 -305807458#1 76442074#1 76443355#1 76443587 362066955#1 76443176#4 76441067#3 76441495#2 76423562#1 -76443355#3 -76441365#1 -76441586#0 -76445041#4 -76443747#0 76441904 76441773 -301178992 76443312#0 367636024 76441807#2 76441141#5 -76441067#2 76442648#1 76443355#0 -362066955#1 -76441065#1 367636038#7 -76441385#2 76443747#2 -76442079#1" />
    <trip id="18" depart="1.80" from="76442325" to="77699442" via="-76441958 367636038#1 -76442708 76441067#1 -76443355#2 -76442150 -305807458#1 -76441385#3 -76441067#0 -76441067#2 -76442079#0 76443747#2 -362066955#5 -361431608#1 76442443#0 305807458#1 76441067#2 76443355#3 76443372#5 -76441531#4 -76442443#2 76442074#2 76442018 361431608#0 -152627338#0 -76441807#0 -76442090#3 -76442235#0 76441065#1 76444561 -76442648#2 76441531#1 301178990 76441067#0 -76441385#2 76444561 76442235#1 -335820716 258787159 305807458#1 -76441067#0 -76443261 362066953 -152673567#0 76441526 -76441385#2 -76441807#3 76441495#0 76441878#1 -362066955#3 -305807458#3 76441065#0 -76443312#0 76441234#3 -76441184#1 76442079#0 76443747#0 76443156#2 -76441385#3 361431608#4 76441202#0 -76445041#7 -76441807#0 -305807458#3 -76443747#2 76443312#0 152627338#0 -76443372#5 367636038#8 362066955#5 -76441184#2 76442601 76441482#0 305807458#1 -76443355#0 367636038#8 -76441385#3 76444561 76441482#0 76443355#3" />
    <trip id="19" depart="1.90" from="-76443747#0" to="-76445041#1" via="76442648#0 -76441437#1 76441065#2 76442443#1 -76441531#1 -76441807#0 -76442443#2 139098080 362066955#6 367636038#5 76443355#1 76445041#3 335820716 76443156#4 76419221#3 -76441531#2 -367636038#6 -305807458#1 -76441958 -76441164#6 -361431608#3 -76442090#1 76442443#0 -76443355#0 -321748518 76419221#3 -305807458#1 76441065#0 76441437#0 362066955#6 -367636038#4 76441878#2 -76441495#2 76441141#3 76441067#0 367636038#4 -76441878#0 76442235#1 76441141#3 76441365#1 76441526 76441141#4 76441164#7 -361431608#0 -76442074#0 76443355#2 76442090#2 367636038#8 -76442150 361431608#3 76441067#1 -76442806 76441365#1 76441385#0 -76441067#1 -361431608#2 76443312#0 -367636038#7 76443176#3 -76441067#2 76442090#2 -76441787 76441067#2 -76445041#4 305807458#3 76441067#2 76443372#6 76443747#2 76441065#0 76442018 -367636038#7 -76443145 -367636038#3 -76442648#2 76443747#0 -76441495#2 -76442150 76441067#3 77699442 -76441811#0" />
    <trip id="20" depart="2.00" from="76442090#0" to="-76442090#3" via="-152627338#0 76443747#1 76442150 -305807458#1 -76442708 76441164#6 -305807458#3 -76441385#2 -76443372#5 367636024 76441127 76443372#3 301178992 -361431608#0 310453592 -76441164#6 76442708 76443587 -76442074#2 -305807458#3 -76441234#3 -361434078 76443747#2 76442648#0 -76442090#3 -76442708 76443312#0 76443355#1 -76441234#1 76441164#4 76442870 362066955#3 -76441437#2 76442018 76441385#0 -76442090#3 367636038#5 -76442090#2 76444561 -76441067#2 76441876 76441141#3 76443176#3 76442443#0 -301178992 76445041#2 -76442090#2 -76442325 76441141#0 -76442074#0 -76441807#1 76441878#0 367636038#6 76441141#5 -76442464#0 -76442648#2 362066955#5 76443355#2 -76441385#2 301178992 76441385#0 -76442443#1 76441531#1 76442074#0 76441164#4 301178991#0 76442090#3 76441067#3 76442281 76441385#3 -76443747#3 76442074#0 -76442074#0 76419487 -76443355#0 139108139 76441669 76441807#1 -76441164#2 76442601" />
    <trip id="21" depart="2.10" from="-76441437#1" to="76423562#1" via="305807458#3 -361431608#4 -362066955#1 76441385#0 76443355#0 76443372#0 310453592 -76441811#0 76441437#4 -76441807#1 -76441437#0 76443535#1 76441807#2 -76441437#0 -76441437#0 -362066954 76441437#0 76441234#0 -76443156#1 367636038#0 76443156#4 -76441531#0 -76443747#1 76443176#4 -76441437#4 76445041#3 76441385#2 -361431608#5 -77699442 -76441107 76441878#1 -76445041#7 76441385#2 -76443355#2 76441065#1 -76441385#0 -367636038#2 76423562#1 -76442079#0 -362066955#3 361431608#5 76441164#0 367636038#8 -76441202#0 305807458#3 367636038#3 -76445041#1 76441065#1 -76443747#2 76443312#1 -76443747#1 76442090#1 -335820716 -76442601 76442265 362066955#2 76443176#3 -76442443#0 76441807#1 76443355#1 76445041#4 -76443312#1 76441385#0 -76442443#0 76443372#4 76442648#2 -362066955#2 -76441437#0 -76442443#2 76442090#3 362066955#4 -76441437#4 -362066955#5 -76442074#2 -76445041#8 -76442090#2 -76441202#0 -367636038#1 76443176#0 -361431608#5" />
    <trip id="22" depart="2.20" from="76443355#1" to="76443372#6" via="76443372#7 76445041#2 367636038#4 -76441437#4 362066955#5 367636038#4 76441234#1 76419221#2 -76443747#0 76441067#3 76441065#0 -76442464#0 -76441067#2 -76442648#2 76441234#1 76442648#0 76443355#2 -76442708 -76441878#0 362066953 361434078 76442074#0 -76441184#1 76441385#2 362066954 76441184#0 232381920 76441067#0 -76445041#7 76441164#5 -76441202#1 -76441437#0 76443434 -76442648#0 -361431608#0 -76443261 76443031 -76441067#3 76442203 76441385#3 -76441164#3 -76441385#0 232381920 76441164#3 76445041#7 76442648#2 76442079#1 -321748518 76445041#8 -76443312#0 -76442235#0 -76441437#0 76443156#0 -310453592 76442443#2 76443355#0 -76443156#0 -76441065#1 -76443355#1 -76441586#1 76441876 76445041#7 -76442648#0 -362066955#5 76441773 -76441807#2 -76441065#0 76442281 76442443#0 -76441437#2 76441385#1 76443156#0 -76441202#1 -76441440 -76442648#2 -361431608#2 -76442601 76441385#1 76441437#0 76442090#0" />
    <trip id="23" depart="2.30" from="-76441067#3" to="-76443355#2" via="-301178991#0 -76441365#1 -76441437#3 76442648#2 -76441811#1 76442090#3 -76443156#3 76441164#3 -76441234#1 76443176#4 -367636038#0 -76441164#6 152673567#1 76442265 -76441202#0 76442079#1 -76442457 76443372#3 -76442074#2 76443355#3 -76441385#3 -152627338#0 76441164#5 -76442457 -361431608#0 76443145 305807458#3 76444561 335820716 -76441164#8 76443312#2 76441385#3 76442443#0 -76441164#7 -76443355#3 76441526 -76441164#6 -76441385#0 76443355#0 -367636038#4 362066955#1 -310453592 76442708 76441065#0 -76442443#1 -76443355#1 -76442150 305807458#1 -76442074#2 -76441067#3 -76441807#0 76443372#7 76441385#3 76443176#4 76443156#4 361431608#3 76443176#0 -152627338#0 361431608#1 -76441234#3 76441958 76441067#2 -335820716 -76441878#0 152627338#0 76423562#0 -76441385#3 -76441811#1 76442090#3 76442235#1 -152627338#0 -305807458#3 76442443#2 232381920 76441807#2 -76445041#4 -305807458#1 76441141#0 76442443#0 -362066955#2" />
    <trip id="24" depart="2.40" from="-361431608#4" to="139098080" via="76441807#3 361431608#4 -76443587 -362066955#0 -76443747#3 -152673567#1 76443355#3 -76443587 -76441067#0 -76441482#0 76441141#3 76441065#0 76443312#0 76442018 -76441202#0 -76442079#0 76443156#4 76445041#1 -76441385#0 -76441807#0 76441067#1 -76443156#2 76444561 -76441065#0 -76441164#6 76441878#0 -76442090#1 -76443747#0 361434078 362066955#1 76443372#2 -367636038#2 76441164#2 362066955#6 -76441437#0 76442235#1 -367636030 367636024 76441365#1 76445041#2 -76442464#0 -76443372#7 76442150 76443312#0 -76441586#0 -76441067#2 -76441385#0 76443355#0 76443312#1 361434078 -305807458#1 -76445041#2 -76441437#3 305807458#1 76442648#2 361923985#0 -76441531#1 76443355#2 -76443156#3 152673567#1 -367636038#3 76442281 76441437#0 361431608#5 -76441437#0 -76441385#2 76444561 -76441531#5 76441385#1 -76442648#2 -76441385#3 76443312#3 76441141#4 -76441437#0 76442235#0 76443535#1 -76441234#1 -76441067#2 -76441807#1 361431608#1" />
    <trip id="25" depart="2.50" from="-76442090#3" to="76443372#4" via="76442601 -76441586#1 76443747#3 -76442090#0 76443176#2 -76441807#0 361431608#1 76441164#7 -76441807#3 -362066954 -76441904 76443312#2 -305807458#1 -76441365#1 152627338#0 76441773 76442090#2 76443176#2 -310453592 301178992 -76442806 367636038#2 -361431608#0 76441385#3 -76442443#0 76441531#2 76441669 76441385#1 76442090#1 76441437#4 76441437#0 -76441437#3 76441141#2 -361431608#3 -76441878#0 -76443355#1 76442443#0 -76441365#2 -76441385#1 -361431608#2 76441694#1 76441807#2 76442090#2 362066955#5 -76442648#0 -361431608#3 -76441437#0 -76441067#2 152627338#0 362066955#4 -76441164#7 -76441127 76441065#2 -76443587 -76443747#1 -76443372#5 76442235#1 76442090#0 -76441184#1 361431608#4 -76443355#0 76443156#4 76441067#3 -76441067#0 -76442074#1 76441811#1 362066955#2 -321748518 -361431608#4 -76441807#3 76443176#5 76443031 -76441164#2 76441234#1 -76443747#3 76441531#4 76441164#2 -76441107 -76441662 -76443355#2" />
    <trip id="26" depart="2.60" from="-76445041#0" to="-76441385#3" via="76441234#3 362066956 367636038#6 -361431608#2 76443145 76443176#2 361431608#2 76441067#0 76441067#0 -305807458#3 -76441065#0 -76441904 76441141#3 76441141#0 362066955#1 -76441365#3 76441141#0 76442443#2 76443587 -76441067#3 -305807458#1 76442281 362066957 -152673567#1 76441385#3 -76441773 -361431608#2 76444561 76441065#1 -76441437#4 76443031 362066955#2 76443156#4 76443535#0 -76441067#2 76443372#5 -76441495#1 -367636038#3 361431608#4 301178992 362066955#3 -335820716 -76442090#0 76443312#3 -76441164#3 76443176#5 -76441807#1 -76441385#1 76441141#0 76443176#1 76441437#3 76441586#1 76442583#1 -361431608#2 -76441662 -362066955#5 76441164#2 -76443747#3 76441141#1 -76441067#0 76442090#3 -367636030 -76441482#0 76442079#1 76442150 76441065#1 362066955#1 76441067#2 -76443747#1 76443176#5 76442150 362066955#0 76441065#1 -367636038#6 76441067#1 76442079#1 258787159 -76441365#1 76441141#7 76441526" />
    <trip id="27" depart="2.70" from="76442079#2" to="76442079#0" via="76442443#2 76441141#4 -76442079#2 -76441164#8 -76441662 -258787159 -76441531#6 76442079#0 76441878#1 -362066956 76441234#0 76443372#4 76441164#6 76442583#1 -76441787 76419221#0 -76441164#7 76443747#3 76441141#3 -76442079#1 -76441437#0 76443587 -76441234#1 -76443156#2 -76442074#0 -76441878#0 -361431608#5 76441202#0 -76442583#1 76441141#4 76443312#1 -76443355#2 -76441694#1 76419221#3 -301178990 -362066957 76443176#2 -76442457 76441141#7 76441164#5 -76441385#2 -76441694#1 361434078 76441127 -367636038#0 152673567#1 76443355#0 -76441127 -305807458#1 76443176#5 362066955#0 76441385#3 301178990 305807458#1 76442079#0 76441958 76442648#0 -76441437#0 76419221#3 76442090#3 76441164#5 76441164#3 -76441437#0 76444561 76441365#2 76443747#1 76423562#0 76443176#0 76443747#0 76443176#0 -76441526 -76441067#0 361431608#5 76442265 76443747#0 76445041#0 -362066955#5 76441694#1 76441141#5 152627336" />
    <trip id="28" depart="2.80" from="-76441234#3" to="305807458#1" via="76445041#5 -305807458#3 76442090#2 76443145 -76443261 76441669 76443355#1 305807458#1 76443372#0 -362066955#5 76441437#4 -76441807#2 -76441437#0 76442235#1 -76442090#1 -76441107 76441141#3 -76441365#3 -76442090#1 -76442648#0 139098080 -76443587 -361431608#5 76441586#1 -76442443#0 -76442443#2 -76441164#0 76441141#4 -362066955#0 -361431608#5 76443145 -152673567#1 300719826 -76441385#0 76441164#8 -76441067#0 -76442443#1 76441065#2 -76441694#1 76441482#2 76443535#0 367636038#2 76441065#1 139098090#0 76441878#1 76441385#0 -362066955#5 76443372#7 76443535#1 76441067#0 76442648#2 76441437#2 -76443747#1 77699442 76443747#3 -76441586#1 76441234#3 76441164#5 -305807458#3 76419487 76419487 76441164#2 -76441694#1 -76442443#2 367636024 -305807458#1 -76442464#0 76441440 76441807#2 76443747#3 -76445041#8 76441482#1 152673567#1 -76445041#6 76443747#3 76441531#2 76441365#1 76441141#7 -76441807#2 -361431608#2" />
    <trip id="29" depart="2.90" from="76443535#0" to="76443156#2" via="76442090#3 300719826 -335820716 -76441440 76441141#0 -76442648#1 76441437#0 362066955#1 362066955#6 152627338#0 -76442074#0 367636038#7 -76443747#0 -152673567#0 -361431608#0 -305807458#3 -76443372#0 -76441807#0 76443747#0 76443176#1 -76441787 76441067#0 -76445041#4 -361431608#3 -76441807#0 -76441586#0 76441531#4 76443156#2 367636038#7 -76442443#2 -76441904 77699442 76443156#4 76441164#0 -76441065#1 76441141#6 -362066955#1 -76441202#0 76423562#0 76443156#0 76442583#0 76442074#2 -76442464#0 76442443#0 76441141#4 76442443#0 -76441669 -76442079#2 76441482#2 310453592 362066957 76441234#3 362066955#5 76441495#0 -76441586#0 -76443372#6 -76441694#1 -76441067#0 -76441694#1 76441365#1 258787159 -76443355#2 76441440 76441067#2 76443535#0 -305807458#3 -305807458#1 -76443372#3 76441067#2 76443176#4 -76443156#0 -76442074#1 76443176#1 367636038#3 -76442443#2 -76443434 76441531#5 76441164#0 367636038#0 76441482#2" />