<?xml version="1.0"?>
<!-- generated on 2017-02-13 22:07:26.053113 by $Id: randomTrips.py 19495 2015-12-02 12:36:28Z behrisch $
  options: -n 3x3.300.roads.xml <doubleminus>r 3x3.300.routes.xml -a 3x3.300.randomTrips.xml <doubleminus>begin 0 <doubleminus>end 30.00 <doubleminus>period 0.1 <doubleminus>min-distance 0 <doubleminus>fringe-factor 1 <doubleminus>intermediate 50 -l -o 3x3.300.trips.xml
-->
<trips>
    <trip id="0" depart="0.00" from="-12#3" to="--12#3" via="-12#1 --12#3 -12#1 -12#3 --148#0 -12#3 -12#1 --12#2 -12#4 --12#1 -12#3 --12#0 -148#1 --148#0 -142#1 -148#1 --12#1 -148#1 -12#1 -12#4 -142#0 -148#0 --12#2 -148#1 -148#0 -12#3 --12#3 -142#0 --12#3 -12#1 -142#0 --142#0 -148#0 --12#2 --12#3 -12#1 --12#3 --12#2 --12#3 --12#1 -12#2 --12#0 -12#3 -12#4 -148#0 -12#4 --12#3 --12#2 --142#1 -142#0" />
    <trip id="1" depart="0.10" from="-12#4" to="-12#1" via="-12#2 -12#1 --12#3 --148#1 -12#3 --12#1 -142#1 --12#2 --12#3 -12#1 -12#3 --12#1 --148#1 --12#0 -12#1 -148#1 --142#1 -148#0 --12#1 --12#3 -148#1 -12#1 --12#1 -12#4 --148#1 --148#0 --12#2 --148#0 --142#0 -12#3 -148#1 --142#0 --12#2 --12#3 -12#1 --12#1 -142#0 -142#1 --142#1 -12#4 --148#0 --148#1 --12#0 -142#0 --12#0 -12#3 -142#0 -12#2 -12#4 -12#4" />
    <trip id="2" depart="0.20" from="-142#0" to="--148#0" via="-142#0 --148#0 -12#3 --12#2 --142#1 -12#3 -12#4 --12#3 -12#4 -142#1 --12#2 -148#1 --12#3 -142#1 --12#2 -142#0 --12#3 --148#0 --142#1 --148#0 -142#0 -12#2 -142#1 -12#4 -142#0 -142#1 --12#1 -142#0 -148#0 --148#1 --12#2 --12#1 -12#2 --12#1 -12#4 -12#2 --12#1 --12#0 -12#4 --12#1 -12#3 --12#1 -12#2 --12#0 --12#2 -12#1 -12#2 --12#2 --12#1 --142#1" />
    <trip id="3" depart="0.30" from="-12#3" to="-12#1" via="--12#3 -148#1 -142#1 -12#3 -12#1 -142#1 --142#0 -12#4 -12#3 --12#0 -142#1 --142#0 -12#1 -142#0 --12#0 --148#0 --12#0 -12#1 -12#1 --12#0 -142#0 -142#0 --142#0 --148#1 -12#2 -148#0 --142#0 -142#0 --148#0 --142#0 --12#3 -12#2 -142#1 -12#2 --12#2 -142#0 --12#0 -12#2 -142#0 --12#0 --142#1 -12#3 -12#2 --12#2 -12#3 --148#1 -142#1 --12#1 --12#2 -12#1" />
    <trip id="4" depart="0.40" from="--148#0" to="--148#0" via="--12#3 --12#3 -148#0 -12#3 --12#2 --12#1 -148#0 -12#2 -148#1 --12#2 -12#2 --12#0 -148#1 --12#1 --142#0 --12#3 -12#1 --148#0 -12#3 --12#0 -12#3 --12#1 -148#1 --12#2 -12#3 --148#0 --12#3 -148#1 --142#1 -12#1 --12#2 --12#0 --12#2 --142#1 -148#0 --12#0 -12#1 --12#0 --12#2 -12#4 --12#0 -142#1 --12#3 -12#4 -12#3 --148#1 -12#2 -148#0 --12#2 --12#1" />
    <trip id="5" depart="0.50" from="-148#1" to="--12#3" via="-12#4 --12#3 -12#1 --142#1 -12#3 -12#4 --12#2 --142#1 -148#0 -12#3 --12#0 -12#3 --142#1 --12#1 -12#2 --12#1 --12#3 --12#1 -142#1 -12#3 --142#1 --12#1 -12#1 --12#1 --12#0 --12#1 --12#0 --12#2 --12#0 --12#0 --12#2 --12#3 -148#1 --142#0 --12#3 --12#3 -12#1 --12#2 -12#1 -12#3 --12#1 -12#2 -12#3 --12#1 --12#2 --12#2 -12#4 -12#1 --142#0 -148#0" />
    <trip id="6" depart="0.60" from="--12#3" to="--12#2" via="-12#2 --12#3 -12#3 -142#1 --12#2 --148#1 -148#0 --12#1 -142#0 --12#2 -12#4 -12#3 --12#0 --12#0 -12#1 -12#3 -12#2 -142#1 -12#3 -12#4 --12#0 --12#1 -12#2 -148#1 --142#1 --12#0 --12#1 --12#2 --12#1 --12#0 --12#1 --12#3 --12#2 -148#0 -12#2 -12#4 --12#0 -12#4 -148#0 --148#0 -148#0 --12#3 -148#0 --142#1 -12#2 --12#1 --12#3 --142#0 -12#4 -12#1" />
    <trip id="7" depart="0.70" from="--148#0" to="-12#2" via="--12#1 -142#0 --12#2 --148#1 -12#3 --12#0 --12#1 -12#3 --12#0 --12#1 --12#3 -12#3 --12#2 -12#3 -12#1 --148#1 -142#1 -142#1 --142#1 --12#3 --12#0 --12#2 -12#4 --12#3 -12#1 -12#1 -142#0 -142#0 --12#2 -12#3 --12#3 -12#4 --12#1 -12#1 -12#3 --12#0 --12#1 --12#0 -12#4 --148#0 --12#0 --12#3 -148#0 -148#1 --12#0 -142#1 --142#1 -148#1 -12#2 --142#0" />
    <trip id="8" depart="0.80" from="--142#1" to="-12#2" via="--142#0 --148#0 -12#2 -12#1 -12#3 -12#4 --142#0 -12#3 -12#1 --12#1 --12#1 -142#1 --12#3 --12#0 -142#0 --148#1 --12#0 --12#1 --12#3 -12#4 --142#1 -148#0 --148#0 --148#0 -12#4 -12#4 -12#2 --12#1 --148#0 -12#3 -142#0 -12#3 --142#0 --12#0 --12#3 -142#0 --12#0 --12#0 -148#0 -12#3 -142#0 -148#1 --142#1 --12#2 --148#1 --142#1 --12#3 --12#1 -12#1 --12#3" />
    <trip id="9" depart="0.90" from="--142#0" to="--12#2" via="--12#3 --142#0 --12#2 -148#0 -12#1 --142#0 -148#1 -148#0 -142#0 -142#1 --142#0 -12#4 -12#1 -12#2 -12#2 --12#0 --148#0 --12#3 --12#3 --142#0 -12#4 --148#0 -142#0 -148#0 --12#0 --12#0 --12#3 -142#1 --148#0 --12#1 -12#3 --12#3 --12#1 -148#1 --148#0 --12#3 --12#2 -12#4 -12#3 --142#0 -12#4 --148#0 -12#4 -12#4 -148#0 --12#3 -148#1 -12#4 --12#3 --142#0" />
    <trip id="10" depart="1.00" from="-142#1" to="-12#2" via="-12#1 -12#1 --12#0 -142#0 -148#1 -142#0 --12#1 -12#2 -142#0 --12#3 -12#2 -12#3 --142#0 --142#1 --12#0 -12#1 --12#1 --12#1 --148#1 -12#4 --142#1 --142#1 -142#0 -142#1 --142#0 -12#2 --148#0 --12#2 -12#3 -12#3 -148#0 -142#1 -142#0 -12#3 -12#4 --142#1 -12#1 -12#4 --12#3 -12#4 -148#1 -12#2 --142#0 -148#0 --142#0 --12#3 -12#1 --148#1 -12#3 --12#3" />
    <trip id="11" depart="1.10" from="-12#1" to="-12#4" via="-12#3 -12#2 --12#1 --12#1 -12#2 --142#1 --12#1 -12#4 -12#4 -12#4 --12#2 -12#4 --12#3 --12#2 -12#2 --12#3 --12#0 -142#0 --148#0 -12#2 --12#0 --12#2 --12#3 --12#2 -12#2 -12#3 --12#2 --12#0 --142#1 --12#2 -148#1 -12#4 --12#1 -148#0 -12#1 -12#2 --12#0 -12#2 -12#2 --12#2 -12#4 -12#1 -12#2 --12#2 --142#0 -12#3 -12#1 --148#0 --142#0 -12#2" />
    <trip id="12" depart="1.20" from="--148#1" to="--12#2" via="-148#0 --148#1 -142#1 -12#2 --12#2 -148#0 -12#4 --12#3 -12#1 -12#1 -12#3 --12#2 -12#4 -142#0 --12#2 --12#1 --12#1 --12#3 -12#2 --12#3 --12#1 --12#3 --12#3 --12#2 --12#1 --12#1 --12#0 --12#0 -142#1 -12#3 -12#1 --148#0 --12#0 -12#2 --12#1 -12#4 --12#3 -12#3 -148#1 -12#1 --12#2 -148#1 --12#1 -148#1 -142#0 -12#1 --142#1 --148#0 -148#0 --12#0" />
    <trip id="13" depart="1.30" from="--12#0" to="--12#0" via="--142#1 --142#1 -12#3 --12#3 --12#0 --142#1 -12#2 -12#1 --12#3 --12#2 --12#2 -12#2 --12#1 -12#4 --142#0 -12#1 -12#3 --12#1 --12#2 -12#3 -12#3 --12#0 -142#1 --12#3 -12#4 --148#0 -148#0 --12#1 -12#1 --12#3 --12#2 -12#4 --12#1 --148#1 --148#1 --142#1 --142#0 -12#3 --12#3 -12#4 -142#0 -12#2 --142#1 -142#1 -12#2 -12#1 -12#2 --12#2 -12#4 -12#4" />
    <trip id="14" depart="1.40" from="-148#1" to="-12#3" via="-142#0 --12#1 --12#3 --12#3 --12#3 --148#1 --142#1 -148#1 -12#4 --12#1 -148#0 --12#3 --142#1 --142#1 --12#3 -12#3 --12#1 --12#3 --12#1 -12#4 -12#2 --148#0 --12#0 -142#1 -142#0 --12#2 -12#1 -12#2 --12#1 --12#3 --148#1 --12#0 -142#1 -12#3 -12#2 --12#0 --148#1 --12#3 -12#3 --12#1 --12#3 -12#1 --142#1 --12#2 --12#1 -12#1 --12#2 -12#4 -12#3 -12#1" />
    <trip id="15" depart="1.50" from="-148#0" to="-12#2" via="--12#3 -12#2 --12#0 --12#2 --12#1 -12#4 -12#2 -12#3 -142#1 --12#2 --12#0 -142#1 -142#0 -142#0 --12#1 --12#2 --148#1 --12#1 -12#4 -12#3 --12#0 -12#3 --12#3 -148#0 --12#2 --12#1 --148#1 -12#4 -12#1 --12#1 -12#4 -12#2 --12#3 -12#4 --148#1 --142#0 -142#1 -12#2 --12#3 -148#1 --142#0 -12#4 -12#1 -148#1 --12#0 --12#2 --142#0 --148#0 --148#1 --12#3" />
    <trip id="16" depart="1.60" from="-12#2" to="-12#4" via="-12#4 --12#0 -12#2 --12#2 --12#3 --12#2 --12#0 -12#1 -148#0 --12#0 --148#1 --12#1 -12#4 -12#4 -12#3 -148#1 -148#1 --12#3 -12#4 --12#1 -12#1 --12#3 --12#1 --12#0 --12#3 --12#2 --12#2 -12#3 -12#2 --12#2 --142#0 --12#3 -142#1 -12#3 -142#1 --12#0 -12#1 --12#3 --12#0 -12#4 -12#3 --142#0 -148#1 -142#0 -12#3 -12#1 -142#1 --12#0 -12#2 -142#1" />
    <trip id="17" depart="1.70" from="--12#3" to="--142#1" via="-12#3 --148#1 --12#2 --148#0 -12#2 --12#1 -148#0 --12#1 --148#1 -142#1 --12#2 --12#3 --142#0 --12#2 -12#2 -142#0 -12#3 -12#2 -142#1 --142#0 --12#1 --12#2 -12#3 -142#1 -148#0 -142#1 --12#0 -12#1 -142#0 --148#1 -12#1 -142#0 --148#0 --12#1 --12#1 --12#1 --142#0 --148#0 -142#1 -148#1 --12#0 --142#0 -12#4 -142#1 -142#0 -148#0 -12#3 -12#3 -12#2 --12#3" />
    <trip id="18" depart="1.80" from="--142#0" to="--12#3" via="--12#0 --142#1 -12#1 -12#3 --142#0 -12#1 -142#1 -12#4 -12#3 --142#1 -148#1 --12#2 --12#1 --12#0 --12#0 -12#2 --12#3 -142#0 -12#2 -148#0 -142#1 -142#1 --12#1 -12#2 -12#4 --142#0 -12#3 --12#3 --12#0 --148#0 --12#1 -12#2 -142#0 -12#3 -142#1 -12#4 -12#3 --12#0 --12#3 --12#2 --142#0 -12#4 --12#2 -12#3 -12#2 --12#1 --12#0 --12#0 --148#0 -148#0" />
    <trip id="19" depart="1.90" from="-142#0" to="--142#0" via="--148#0 --12#3 -12#3 -12#3 --12#0 --142#1 -148#1 -12#4 -12#3 --142#1 --12#2 --12#0 --142#1 -12#3 -148#1 --148#0 --12#0 --142#0 --12#2 --148#1 --12#1 --12#3 -142#1 --12#2 --12#0 --12#0 -142#0 -142#1 --12#0 --148#0 --148#0 --12#1 -12#4 --148#1 -148#0 -12#1 -12#3 --148#1 -12#1 --12#2 -142#0 --12#0 --142#0 --148#1 --12#0 --142#0 --12#2 -142#0 -148#1 --148#0" />
    <trip id="20" depart="2.00" from="--148#1" to="-12#3" via="-142#0 --142#1 -142#0 --12#3 -12#2 -148#0 --12#2 --12#2 --12#1 -148#1 -12#2 --12#3 --12#2 --12#2 --12#0 -12#4 --148#0 --142#0 --148#1 -12#4 -12#2 --12#2 -12#1 -12#1 -12#1 -12#4 -12#3 --12#3 --12#0 -12#1 -12#2 -142#1 -12#4 --12#2 --12#0 --12#2 --142#0 --12#0 --12#2 -12#2 --12#2 --148#0 -148#0 --148#0 --142#0 -12#3 --148#0 -12#2 --148#1 -142#1" />
    <trip id="21" depart="2.10" from="-12#3" to="--12#3" via="-12#4 --12#0 --142#0 --142#1 -12#2 --12#0 -12#2 --148#1 -12#1 -12#1 --12#2 -12#3 --142#1 --12#0 -12#1 --12#2 --12#3 -12#2 -12#3 --12#3 --142#1 -12#2 --12#2 --12#1 -148#0 -142#1 -12#3 -142#1 -12#4 -12#3 -12#4 --12#1 --12#2 -12#2 --12#2 --148#1 --12#0 -12#4 -142#1 -148#0 --142#0 --148#1 -12#3 -148#0 -12#3 --12#2 -12#1 -148#0 -12#3 --12#0" />
    <trip id="22" depart="2.20" from="--12#1" to="--148#1" via="--142#1 -12#4 -12#2 --12#0 -12#4 -12#4 -12#4 --142#1 --12#2 --142#1 -148#0 --12#1 --148#1 -12#4 -142#1 -12#3 --142#1 --12#1 -12#3 --12#3 -12#3 --12#2 -12#4 --12#0 -148#1 -12#3 --12#3 --12#1 -12#4 -142#1 --12#2 -148#0 -12#3 -142#0 --12#3 -142#0 --142#0 --148#1 -12#2 -12#3 --12#2 --12#2 -12#3 -12#4 --12#2 -142#1 -12#4 --12#2 --12#2 -12#2" />
    <trip id="23" depart="2.30" from="--12#0" to="--12#1" via="-12#3 --148#1 --12#1 --12#3 -12#1 --148#0 -12#2 -12#2 --12#2 --12#1 --142#1 -12#1 --12#3 -12#2 --12#1 -142#1 --148#0 --12#3 -12#1 -12#1 --12#3 -142#0 -12#2 -12#2 -12#2 --148#0 --12#2 -12#2 -12#1 --12#2 -12#2 -12#2 --12#2 --12#3 -12#2 --12#2 -148#0 --142#0 --12#2 --12#0 --142#1 --12#1 -12#2 -12#1 --12#2 --148#1 -12#1 --12#3 --148#1 --12#2" />
    <trip id="24" depart="2.40" from="-142#1" to="-12#2" via="-148#1 -12#4 -12#4 --148#0 -12#2 -148#1 -12#3 --12#2 -142#1 --142#1 --12#0 --148#1 -12#4 --12#0 --12#3 -142#1 -12#1 --148#1 --12#0 -12#3 -12#4 --12#1 -148#0 -148#1 --12#0 --12#1 -12#4 --142#0 --12#2 --12#3 --142#1 -12#2 --12#1 --12#2 --12#1 --12#2 -12#1 --12#1 --12#3 --12#0 --12#1 --142#0 -12#3 --12#1 --12#0 -148#0 --12#3 -148#0 --12#1 --12#0" />
    <trip id="25" depart="2.50" from="--12#3" to="-142#0" via="-12#2 --12#0 -148#1 -12#3 --12#0 --12#2 -12#3 -12#3 --12#3 --148#0 -142#0 --12#2 --12#3 --148#1 --12#1 --12#0 -142#1 -142#0 --142#0 -12#4 -12#4 -12#1 -148#0 --12#0 --12#1 -12#3 --148#0 --12#0 -12#1 -148#1 -142#0 --12#1 -12#2 --148#1 --148#0 -142#1 --12#3 -148#0 -12#1 --142#0 -12#2 -12#1 -12#3 -142#1 -148#1 --12#0 -12#1 --12#1 -142#1 --142#0" />
    <trip id="26" depart="2.60" from="--12#2" to="--12#1" via="-12#1 -12#2 --148#0 --12#3 -12#2 --12#0 --12#2 --12#3 --142#1 --12#0 -142#1 -12#3 -148#1 --12#1 --12#3 -12#3 --12#3 --12#3 --148#0 --148#1 --12#2 -12#2 --12#0 -12#2 -142#0 -148#0 --142#1 -12#2 --12#2 -148#1 -142#1 --12#0 --12#2 --12#3 --12#0 --12#3 -12#3 --12#1 -142#0 -12#4 --12#3 --12#1 -148#0 -12#4 --148#1 --12#2 --12#2 --148#1 -148#1 -12#1" />
    <trip id="27" depart="2.70" from="--148#1" to="-12#4" via="-12#4 --12#0 -148#0 -12#4 -12#3 -142#1 --142#1 --12#2 --148#1 -12#3 --12#2 -12#1 -12#3 -142#1 --12#0 -12#3 --142#1 -12#4 --12#3 -142#0 -12#1 -12#3 --12#1 --12#0 -148#1 -12#2 -142#1 --12#3 --12#1 --12#1 --12#0 --12#2 --12#0 -12#1 -12#3 -142#0 --12#2 -12#1 -142#1 -12#4 --12#1 -12#1 --12#1 --12#1 --148#1 -12#4 -12#2 --12#3 --148#1 -12#3" />
    <trip id="28" depart="2.80" from="--12#0" to="--12#0" via="--142#1 --12#0 --148#0 --12#2 -12#2 --142#1 -12#3 -142#0 --12#3 --148#0 -12#4 --12#2 -12#2 -148#1 --12#1 --12#0 -12#2 -12#3 -12#2 --12#2 -148#0 -12#3 -12#1 -148#1 --148#1 -12#4 --12#2 -12#1 -142#0 --12#2 --148#1 -12#2 -148#1 -12#4 --12#0 -142#0 --12#1 -12#2 --142#0 --148#0 -12#3 --148#1 -148#0 -142#0 --12#3 -148#1 --12#0 -12#2 -12#1 -148#0" />
    <trip id="29" depart="2.90" from="-12#2" to="-12#3" via="--12#0 -142#1 -148#1 --148#0 --142#0 -12#4 --12#3 -12#4 --148#0 --12#2 -12#1 --12#0 --12#3 -12#3 -142#1 --142#1 --148#1 --148#1 -148#0 -12#1 --12#1 -12#2 -12#1 --12#1 -12#2 -12#4 --12#2 --12#1 -142#1 --12#2 --12#0 -12#1 -148#0 --12#0 --12#3 --12#1 -12#2 --142#0 --12#3 --142#0 --12#0 -12#4 --12#1 --12#2 -12#3 --148#1 -12#3 -12#3 --12#3 --12#0" />
    <trip id="30" depart="3.00" from="--12#3" to="--12#2" via="-142#0 -142#0 -12#2 --12#1 --142#0 --12#2 -12#4 -148#1 -12#2 -12#1 --148#1 --148#0 --142#0 --12#0 -12#3 -142#1 -12#3 --12#1 --142#0 -12#4 -12#1 --148#0 --12#3 --12#3 -12#3 -12#2 -12#3 -148#1 --142#1 --142#1 -12#3 --12#3 -12#3 -12#3 -12#1 --12#2 --142#1 -12#1 -148#1 --12#3 --12#3 --12#3 -148#0 -142#0 --12#2 -12#4 --12#3 -12#1 --148#1 --142#0" />
    <trip id="31" depart="3.10" from="--142#1" to="-12#3" via="-148#1 -12#1 -12#3 --148#0 --148#0 -12#3 -12#1 -12#3 --12#1 --12#0 -12#3 --148#0 --12#3 --12#1 --142#1 --12#2 -12#1 -12#4 --12#2 --142#0 --12#2 --12#2 --12#3 -12#4 -12#2 --12#2 --142#0 -12#4 --12#0 --12#0 -12#4 -12#4 -148#1 --148#0 -12#2 -148#1 --12#3 -12#4 -12#4 --12#0 --12#2 --12#2 --148#0 --12#2 -148#1 -12#1 --12#2 -12#2 -142#1 --148#1" />
    <trip id="32" depart="3.20" from="-12#2" to="--12#2" via="-12#1 -148#0 --12#0 --12#2 -142#1 --12#1 -142#1 --12#1 --148#0 -142#0 --12#1 -12#1 -12#3 --12#1 --12#3 -12#2 -12#3 -142#0 --142#1 -142#0 -12#3 --148#0 -12#3 --142#0 --12#3 -12#2 -12#3 -12#3 --12#1 -142#1 -12#4 --148#0 -12#4 --12#2 -142#1 --12#3 -12#4 -12#3 -12#1 --12#0 --142#0 --148#1 -12#4 -12#4 -148#1 --12#1 -12#2 -12#4 --148#0 --12#0" />
    <trip id="33" depart="3.30" from="-12#2" to="--142#1" via="--148#1 -12#2 --12#2 -12#3 --12#2 -148#0 -12#3 -142#0 --12#2 --12#1 --12#0 --12#1 --12#0 --12#3 -12#4 --12#0 -12#2 -12#4 -12#1 -12#2 --12#1 --12#3 -12#4 --12#1 --12#1 --12#1 -12#4 --148#1 --12#0 -12#1 -12#2 -12#1 --142#0 -12#2 --12#1 -142#0 --12#0 --12#3 --12#2 -12#1 -148#0 -148#0 -142#1 -12#2 --148#1 --148#0 --148#0 --12#2 --12#2 -148#1" />
    <trip id="34" depart="3.40" from="--12#0" to="--148#1" via="--142#0 -12#4 -12#1 --12#2 -142#1 -12#2 -142#1 --12#0 -12#3 --142#1 --12#1 --142#1 --142#1 --142#1 --142#1 -12#2 -12#1 -12#3 --12#1 -148#1 --12#0 -12#1 -148#1 --12#1 -12#3 --142#1 --12#0 --148#0 -12#4 --12#0 -12#2 -142#1 -12#3 --12#0 --142#1 -142#1 --12#3 -142#1 -148#1 --12#2 --12#3 -148#0 -12#3 --12#3 -148#1 --12#1 -142#1 -148#0 -142#0 -12#1" />
    <trip id="35" depart="3.50" from="-12#2" to="-142#1" via="-12#3 --12#0 -142#0 --12#0 -12#2 --12#2 -148#0 --12#1 -12#2 -12#3 --142#1 --148#0 -12#2 --12#0 --12#0 --148#0 --12#0 -148#1 -12#3 -12#2 --12#0 --12#2 --12#3 -12#3 --12#2 -12#4 -12#2 --12#2 -148#0 --12#2 --12#0 --12#3 --12#0 -12#2 -12#3 -12#2 --12#1 --12#1 -12#2 -12#3 --148#1 --12#3 -12#4 -148#0 -12#2 -148#1 -12#1 --142#1 --12#2 -12#3" />
    <trip id="36" depart="3.60" from="--12#0" to="--142#1" via="-148#1 --142#0 -148#0 --148#0 -142#1 --12#1 --148#1 --148#1 --12#0 -12#3 --12#2 -142#1 -142#0 --12#1 -12#3 -142#0 -148#1 -12#4 --12#2 --12#1 -12#2 -142#1 --12#0 --142#0 --148#0 -142#1 -12#1 -12#4 --148#0 --148#0 -142#1 --12#2 -142#0 --148#0 --148#1 --12#3 --12#3 -12#2 --12#3 -12#1 -142#1 --12#1 --12#0 -12#3 --148#1 -12#3 --12#0 --148#1 -12#3 -12#1" />
    <trip id="37" depart="3.70" from="--12#3" to="-148#0" via="-12#4 --142#1 --12#2 -12#3 --12#3 --12#3 -148#0 --12#0 --148#1 -12#2 -12#1 -12#4 -142#1 -12#2 --12#2 -142#1 --142#0 --142#0 --12#3 -12#3 --12#3 -12#2 --12#1 -12#2 -12#4 --142#1 --12#0 --148#0 -12#4 -12#4 -12#2 -142#1 --12#3 --12#0 --12#0 --142#1 --12#2 -148#1 -148#1 -148#0 --12#1 --142#1 --148#1 -12#2 -12#3 --148#1 --12#3 -12#2 --12#0 -142#0" />
    <trip id="38" depart="3.80" from="--12#1" to="--12#2" via="-148#0 -12#3 --12#2 -12#4 -12#1 --142#1 --12#0 --12#0 -12#3 -148#1 --148#0 -142#1 --148#0 -148#0 --142#1 -12#3 --12#1 --12#3 -12#1 -12#4 -12#2 --12#1 --12#0 --12#0 --12#3 -12#4 --12#2 -142#1 --12#3 -148#1 --12#1 --142#0 --148#1 --12#2 --12#3 --148#0 -142#0 --148#1 --142#0 -12#3 --148#0 -12#2 --12#0 -12#4 --12#3 -12#3 --12#3 -12#1 -142#0 --142#0" />
    <trip id="39" depart="3.90" from="--12#2" to="--148#1" via="--142#1 --142#0 -142#1 -12#1 --12#1 --12#3 -12#2 -12#2 -142#1 --142#0 -12#2 --12#0 --12#1 --148#1 -12#3 --12#2 -12#2 --12#1 --12#2 -12#4 -12#3 --148#0 --12#2 --148#1 -12#4 --12#1 --142#0 --12#1 -12#2 --12#0 --12#0 --12#1 --12#1 --148#1 --12#3 -12#4 --12#3 --142#0 -12#2 -12#2 -12#4 -12#4 --12#0 -142#1 --142#0 --142#0 --12#0 -148#0 -12#1 -12#3" />
    <trip id="40" depart="4.00" from="-12#3" to="--12#2" via="-12#2 --142#0 --12#0 --142#1 --12#0 -12#2 -148#0 -148#0 --12#1 -12#2 --12#1 --12#0 --12#1 --12#1 --12#1 --148#1 --12#0 --148#0 --142#1 --12#0 --12#2 -12#1 -12#2 -12#2 --12#0 --12#3 -142#1 --12#3 -12#3 --12#0 --12#0 -148#0 -12#1 --12#1 -12#3 --12#3 -12#1 --12#2 -12#2 --142#0 -12#1 --12#0 --12#1 --148#1 --148#0 -148#1 --12#1 -12#2 --12#3 --148#0" />
    <trip id="41" depart="4.10" from="-12#3" to="--148#0" via="-142#0 --12#0 -148#0 --12#2 --12#0 --12#3 -142#0 -142#1 -12#1 -12#4 --12#1 --12#2 -12#4 --142#1 -148#1 -12#3 -12#4 --12#3 -12#1 -142#1 -12#4 --142#1 --12#0 --142#1 -12#1 -12#3 -12#2 --12#1 -148#0 --12#0 -12#2 -12#2 --148#0 -12#1 -12#1 -148#1 -12#2 -148#1 --12#0 --12#2 -12#2 -12#4 --12#0 --148#1 -148#1 --12#0 --12#1 -12#4 -12#3 --12#0" />
    <trip id="42" depart="4.20" from="--12#2" to="-142#0" via="--12#1 -142#1 -142#0 -12#2 --12#2 --12#2 -12#3 -142#1 --142#0 -12#3 --12#2 -12#1 --12#3 -12#3 --12#2 -12#2 -12#2 --12#0 --12#1 -12#3 -12#4 -12#1 -142#1 -12#3 --12#0 -142#1 -12#1 -142#0 -12#3 -12#3 -12#2 -12#1 --12#3 --12#3 -12#1 --12#2 -142#1 -12#3 --12#1 --12#3 --12#3 --148#1 --148#1 -12#1 --12#0 -12#1 -12#2 -12#4 --12#0 --12#1" />
    <trip id="43" depart="4.30" from="--12#1" to="--12#2" via="-12#3 --12#1 -148#1 -148#0 -142#1 --12#3 -12#3 --12#1 --142#0 --12#3 --12#0 --142#0 -12#4 -12#3 --12#1 -12#4 --148#0 -142#0 --12#3 -12#4 --142#0 --12#2 -12#3 -12#4 -142#1 -12#4 -12#2 --148#1 --148#1 --12#3 -12#1 --12#3 --12#0 --12#0 -142#0 --12#2 -148#0 -12#4 --12#2 -142#0 -12#2 --12#3 --148#0 --12#3 --12#0 --142#1 --12#2 -12#2 --12#3 -148#0" />
    <trip id="44" depart="4.40" from="--12#1" to="--12#2" via="-12#4 --12#3 --12#2 -12#3 -12#4 -142#1 --12#3 --12#1 -12#1 -12#4 --142#1 --142#1 --12#3 -12#1 --12#2 -142#0 --12#2 --148#0 --12#2 -12#2 --12#3 --148#0 -12#3 --12#1 --12#2 -12#2 --12#0 -12#3 -12#3 -148#1 --12#2 -142#0 -12#1 --12#2 -12#1 --12#3 --12#2 --12#1 --142#1 --12#3 --12#0 -12#3 --12#3 --142#1 -12#2 -12#2 --12#2 --12#1 --12#1 --12#1" />
    <trip id="45" depart="4.50" from="-12#4" to="--12#2" via="-148#0 --12#0 -12#2 -148#0 --12#2 -12#2 --12#1 -12#2 -12#3 -12#1 --12#3 --12#3 --142#1 -12#3 -12#4 --12#3 -142#1 -148#0 -12#2 --12#0 --12#3 --12#0 --148#1 --12#1 --148#0 -142#1 --12#3 -142#1 --12#1 --12#2 --142#0 --142#1 --148#0 --12#2 -12#4 --12#3 --142#1 -148#1 --12#3 -12#1 -12#4 -12#4 --148#1 --12#3 --12#2 -148#1 -12#3 --12#3 --12#1 -148#0" />
    <trip id="46" depart="4.60" from="--12#2" to="--148#1" via="-148#1 --12#0 --148#0 --12#3 -12#4 --12#1 --12#3 --12#2 --12#1 -148#0 -12#3 -12#1 -12#2 --12#1 --12#1 -12#4 --12#3 --12#2 -12#1 --12#1 --12#2 --12#3 --12#1 --12#1 -12#2 -12#3 -12#3 -12#1 --148#1 --12#3 -12#3 --12#1 -142#1 -148#0 --12#3 --148#0 --12#3 --142#1 -12#3 -12#2 --142#0 --142#1 --12#0 --148#1 --12#2 -12#2 --12#1 -12#1 --12#1 --12#3" />
    <trip id="47" depart="4.70" from="--12#2" to="--12#2" via="--142#0 --12#3 --12#1 --12#0 -142#1 -148#0 -142#0 --148#1 --12#0 -12#4 -12#3 -142#1 -142#0 -142#1 --142#0 -12#3 --12#3 -12#1 -12#4 --12#3 -12#4 --12#0 --12#3 -12#2 -148#0 --12#2 -148#0 -142#1 --12#3 -12#2 -12#3 --12#3 --12#1 -12#4 --12#0 --12#3 --148#1 --12#1 -148#1 --12#1 -148#1 --12#3 -12#3 -12#1 --142#0 --148#0 --12#1 --12#1 -12#4 --12#1" />
    <trip id="48" depart="4.80" from="-12#2" to="-148#0" via="--12#0 --12#3 -12#1 -12#2 -12#3 --148#0 -12#4 --12#0 --12#3 -12#2 -12#3 --12#2 -12#4 --12#0 -12#3 --12#0 --12#3 --12#1 -148#0 -12#2 -12#3 --142#1 --12#0 -12#3 --142#0 --12#2 -12#4 --12#2 --12#1 -142#1 -148#0 -142#0 -12#4 --12#0 --12#1 --148#0 --148#1 -12#4 -12#4 --12#0 -12#2 --12#2 --142#1 --142#0 --12#1 --12#0 -12#1 --148#1 -12#3 --12#3" />
    <trip id="49" depart="4.90" from="-12#4" to="-148#0" via="-142#0 --12#1 -12#1 -12#2 --148#1 --148#1 --12#3 --12#2 --12#0 -12#2 --12#0 --142#0 -12#4 -12#2 --148#0 -12#3 -12#2 --12#0 -12#1 --148#1 -142#1 -142#1 -142#0 -12#4 --142#0 --142#0 -12#2 -12#1 --148#1 -12#1 --142#0 -12#4 -148#0 -12#4 --12#3 --142#0 --12#0 --12#1 -12#3 -142#1 --12#1 --12#1 -12#3 -12#4 -12#1 -12#4 -148#1 --12#2 --142#1 -12#3" />
    <trip id="50" depart="5.00" from="--12#2" to="-12#1" via="-12#4 -12#4 --12#1 -12#3 --12#2 -12#2 --12#0 --12#2 --12#1 --148#0 --148#1 -148#0 -12#4 -12#3 --12#1 --148#0 -12#1 --12#3 -12#4 --12#0 -142#0 --148#0 --148#0 --12#0 -142#1 --12#1 -12#2 -12#3 --142#1 -12#3 -148#0 -148#1 -12#2 -12#4 --142#1 --12#2 -12#4 -12#1 -148#0 -12#4 --148#0 --12#3 -12#3 --12#1 --12#0 -12#2 -142#0 -12#1 --148#0 -12#1" />
    <trip id="51" depart="5.10" from="-12#3" to="-142#0" via="--142#1 -12#2 -12#3 --142#1 -12#3 --12#0 -12#1 -142#1 --12#0 --12#1 -142#0 --12#3 --12#1 --142#0 --12#2 -12#2 -12#2 -12#4 --12#0 -142#0 -12#4 -12#4 -12#4 -12#4 -12#3 -12#1 -12#3 --142#1 -12#4 --148#1 --12#3 --12#3 -148#0 --12#3 -12#1 -12#2 --12#1 -142#1 -12#1 --12#1 --12#2 -12#2 -12#2 -12#1 -12#3 --142#1 --12#2 --12#2 -12#4 -142#1" />
    <trip id="52" depart="5.20" from="--12#2" to="--12#1" via="-12#3 -12#4 --12#2 -12#1 -148#1 -148#0 --12#3 -12#2 --12#3 --12#1 -12#3 -142#0 -12#2 --12#3 --12#3 -12#1 -12#2 -148#0 --12#1 --142#1 --12#0 --12#3 -12#1 -148#0 -142#0 -12#2 -148#1 -12#2 --12#3 --12#0 -12#2 -148#1 -12#3 -142#1 -12#3 -12#1 --12#1 --148#1 --12#3 --12#1 -148#0 --12#1 -142#1 -12#4 -148#0 --12#1 -148#1 -148#1 -148#1 -148#0" />
    <trip id="53" depart="5.30" from="-12#1" to="--12#1" via="--12#0 -12#4 -148#1 --12#1 --12#2 --12#1 --148#0 --12#3 -142#0 --12#0 --142#0 --142#1 -12#2 --142#1 -12#4 --12#2 --12#2 --12#3 --12#1 --12#2 --142#1 --148#1 -12#1 -148#0 -12#3 --142#0 --12#3 --12#3 -12#3 --12#0 --12#2 -12#2 -12#3 --12#1 --12#0 --148#0 -148#0 -12#2 -12#1 -12#1 -142#1 --148#1 --148#0 -12#3 --12#2 --12#3 --12#0 -12#4 --12#0 --148#0" />
    <trip id="54" depart="5.40" from="-12#2" to="--12#2" via="--12#1 -12#2 -12#1 -12#3 -12#2 -142#0 --12#1 --12#3 -12#4 --148#1 -12#4 --148#1 --12#1 --12#3 --12#3 -12#4 --12#1 --12#3 --12#0 --148#1 -12#3 -148#0 -148#1 --12#2 --12#0 --12#2 -12#3 --12#2 --142#0 -142#1 -12#1 -148#1 -12#3 -12#2 --12#2 -12#3 --142#0 -12#3 -148#1 -12#1 --12#0 -12#2 --12#1 -12#2 -12#2 --142#1 --148#1 --142#0 --12#3 --148#0" />
    <trip id="55" depart="5.50" from="-148#1" to="-12#4" via="--12#3 --12#1 --12#1 -12#4 -12#2 --12#3 --12#2 --148#0 --12#1 -148#0 -12#2 --142#0 -142#1 -12#4 --12#1 --12#3 --148#1 --12#3 --148#1 --142#0 --12#3 --12#1 --12#3 -12#4 --142#1 -12#4 --12#0 --148#1 -12#3 --12#0 --148#0 --12#1 --142#1 -142#0 --12#3 --12#3 -12#3 -12#4 --148#0 -12#2 -12#2 -148#1 -148#1 --12#2 -12#1 -12#2 -12#1 --12#3 -12#3 -12#2" />
    <trip id="56" depart="5.60" from="--148#1" to="-12#2" via="-12#2 -142#1 -12#3 --142#0 --142#1 --12#1 --12#1 -12#2 --142#0 -148#0 -12#2 --12#3 -12#4 --12#0 --12#3 --142#0 -12#1 --12#2 -148#0 --12#3 -12#2 -142#1 -12#1 --148#0 -148#0 -12#4 -142#1 --12#2 --12#2 --12#2 -142#0 -12#2 -12#3 -148#1 --142#1 -12#3 -12#1 -12#3 -12#3 --148#1 --148#0 --12#3 -12#4 -12#4 --12#3 --12#2 -12#4 -148#0 --12#2 --12#2" />
    <trip id="57" depart="5.70" from="-12#3" to="-12#3" via="-142#0 --12#3 --12#2 --148#0 -12#3 --12#3 --12#3 -12#4 --142#0 -12#1 -148#1 -12#1 --12#0 -148#0 --12#3 --12#0 -142#0 -12#2 --142#1 -12#3 --142#1 -12#4 -148#1 -142#0 --12#1 --12#1 --148#1 -142#0 --12#2 --142#1 -12#3 --12#0 -142#0 --142#0 -12#3 --12#0 -148#0 -12#1 --142#0 -12#4 --12#3 -12#3 -12#2 --12#1 --148#0 -12#3 -148#1 -12#2 --148#1 -12#4" />
    <trip id="58" depart="5.80" from="--148#0" to="--142#0" via="-148#0 -12#2 --142#1 -142#0 -12#4 -12#3 -12#4 -148#1 --12#0 --142#0 -148#1 --148#1 -12#1 -12#1 -142#1 -12#2 -12#3 -12#2 -12#4 -12#2 --148#0 --12#3 --148#0 -142#1 -12#1 --12#1 -12#3 -12#2 -12#3 --12#3 --142#0 -148#1 -12#4 --142#1 --142#0 -148#0 -12#3 -142#1 -12#1 --12#3 --148#0 -12#2 -12#1 -142#1 --12#3 -12#1 -142#0 --12#2 --12#2 --12#2" />
    <trip id="59" depart="5.90" from="--142#1" to="-12#1" via="-12#2 --148#0 --12#3 -12#2 --12#2 -148#1 --12#0 -12#2 --12#1 --12#3 -12#1 --12#3 -142#1 -148#1 --12#3 -148#1 --12#3 --12#3 --12#2 --142#1 -12#2 -12#3 -12#1 --12#1 --12#3 -12#3 -12#1 --12#1 -148#0 --12#0 --12#0 --12#2 -12#2 -12#3 --12#2 --148#0 -12#2 -12#1 --12#3 -12#4 --12#3 --12#3 -12#4 --148#0 -148#1 --142#1 --12#1 -12#1 -12#1 --12#1" />
    <trip id="60" depart="6.00" from="--148#1" to="--12#1" via="-142#1 -12#2 -12#2 --148#1 -12#2 --142#1 -12#4 --142#1 --12#0 --148#1 -12#1 -12#4 --142#0 --12#3 --12#3 -148#1 -12#3 --148#1 --142#0 --12#3 -12#2 -148#1 --12#3 -142#1 --12#1 --12#1 --12#0 --12#0 -142#1 --148#0 --12#2 --148#0 -148#0 -142#1 -12#3 -142#1 --142#0 -12#2 -12#1 -12#4 -12#1 -12#4 -12#1 --12#2 -142#0 -148#1 -12#4 --12#1 --12#1 --148#0" />
    <trip id="61" depart="6.10" from="-12#4" to="--142#0" via="-142#0 --12#1 --12#3 --12#1 --12#2 --142#1 --12#2 -148#0 --12#0 -12#2 -12#3 --142#0 --148#1 -148#1 -12#3 -148#0 --142#1 -12#4 -12#4 --148#0 -12#4 -148#1 --12#2 --12#2 -148#1 --12#0 --12#0 -12#3 -148#0 --12#3 --12#3 --12#0 --148#0 -12#4 -12#2 --12#1 -142#0 -12#3 --12#2 --12#0 -142#1 -142#1 --142#1 -12#2 -12#3 -12#4 --148#1 --12#3 --142#1 --12#1" />
    <trip id="62" depart="6.20" from="-12#3" to="-12#3" via="--12#2 --148#1 --142#0 --12#2 -12#1 -12#3 -12#2 -148#1 --12#0 --12#3 -12#3 --12#1 -12#4 --12#2 -12#1 --142#0 -12#4 --12#1 --12#2 -142#1 -12#2 --12#2 -12#1 --12#2 --12#1 --12#2 -12#4 --12#2 --142#0 --148#0 -12#2 -148#1 --12#1 -12#1 -148#1 --12#0 --12#1 -12#4 --148#0 --12#3 -12#3 -12#1 --12#0 -12#1 --12#2 -12#1 -148#0 -12#1 --12#1 --142#1" />
    <trip id="63" depart="6.30" from="--12#1" to="--12#0" via="--12#2 -148#1 -12#4 --148#1 --12#1 --12#3 -12#4 --148#1 -148#1 --12#1 --12#2 -12#1 --12#1 --12#0 --12#3 -12#1 -148#1 -12#2 --12#1 -12#1 -142#1 -148#1 --12#3 --12#2 -12#3 -142#0 -12#2 --12#0 -12#3 --12#2 -142#1 --12#2 -12#4 --12#2 -148#1 --12#3 -142#0 --12#0 --142#1 --12#3 -148#1 -12#2 --142#0 -148#1 -148#1 -142#0 --148#1 -142#1 --142#1 -12#3" />
    <trip id="64" depart="6.40" from="--12#1" to="-142#0" via="--12#1 -12#4 -12#3 -148#0 -12#3 --12#0 --12#3 --12#0 -142#0 -148#0 -12#1 -12#4 --12#0 -12#3 --12#3 -12#4 -12#4 -12#4 --12#2 -12#3 -12#1 --12#1 -12#3 --12#3 -148#0 --12#2 -12#4 -148#0 --12#3 --148#1 -12#4 -12#2 -148#1 --142#0 --12#3 --12#1 --12#3 -12#3 -12#4 -142#1 --12#3 -142#0 -142#1 --148#1 --148#0 -142#0 --12#1 -12#2 --142#0 --12#3" />
    <trip id="65" depart="6.50" from="--12#2" to="--12#2" via="-12#2 -12#2 --12#1 --12#0 --148#0 -142#1 -12#2 -12#4 -12#1 -12#1 -12#2 --148#0 -12#2 -12#3 --142#0 --142#1 -12#1 --12#0 --12#1 -142#1 -142#0 -12#4 --12#1 -148#0 --12#0 -12#4 -12#2 --12#2 --142#0 -12#1 --12#1 -12#2 -142#0 --12#2 -142#1 --12#3 -12#1 --12#1 --148#0 --12#3 --12#1 --12#1 --142#1 -148#1 -142#0 -12#3 --142#0 --142#0 --12#3 -12#4" />
    <trip id="66" depart="6.60" from="-142#1" to="--12#3" via="--148#0 -12#4 -12#1 --142#0 --12#2 -12#3 --12#2 -12#3 --12#1 -142#0 -12#4 -12#1 --12#2 --12#0 -148#1 -12#4 --142#0 -12#1 --142#0 --12#3 --12#3 -12#3 -12#2 --12#0 -12#3 -12#1 --12#1 --12#3 --12#0 --12#3 --148#0 -12#1 --12#2 --12#0 -12#2 --148#0 --12#3 --142#0 -148#0 --12#2 --12#3 --12#0 --12#0 --12#1 --12#2 -12#3 -148#1 -12#3 --142#1 -148#1" />
    <trip id="67" depart="6.70" from="--12#0" to="--12#2" via="-148#1 --12#3 -148#1 -12#1 --142#1 -12#4 --12#0 --12#0 --142#1 --148#0 --12#3 -12#1 --142#0 --12#0 -142#1 -142#0 -148#1 --142#0 -12#4 --12#3 -142#1 --12#1 --12#0 -142#1 -12#1 -12#3 --12#1 -12#4 -12#3 --12#0 --12#1 --12#2 -12#2 -142#1 --142#0 -12#1 -12#3 --148#0 -12#4 -12#2 --142#1 -12#1 --12#2 --12#1 -12#4 --148#0 --12#1 --12#1 --142#0 --148#1" />
    <trip id="68" depart="6.80" from="--148#1" to="-12#1" via="-12#1 --142#1 -148#0 -12#1 --12#3 --12#1 -12#3 -148#1 -148#0 -12#4 -12#3 -148#1 --12#2 -12#1 --12#0 -142#1 -12#3 --12#2 --12#1 --12#3 -148#0 -148#0 --142#0 --12#1 -12#2 --12#0 -12#1 --12#0 --12#1 -12#3 -12#2 -12#4 --148#0 -12#3 -142#0 -12#1 --12#2 --12#3 -148#0 --142#1 -148#1 --12#1 -142#1 --148#0 --12#2 -12#1 --12#3 -12#3 --12#3 --12#2" />
    <trip id="69" depart="6.90" from="-142#0" to="--148#0" via="-12#4 --12#2 -148#0 -12#4 -12#3 -12#2 -148#0 -12#3 -148#1 -12#1 --12#3 --12#3 --12#3 -148#0 --148#0 --12#2 -12#3 --148#1 --142#0 -12#4 -142#1 --148#1 --12#1 -148#1 -12#1 --12#1 --12#2 -12#2 --12#1 -12#1 --12#2 --12#3 -12#1 -142#0 -142#1 --12#2 --12#1 -142#1 --12#0 -12#2 -12#4 --12#2 -142#0 --12#0 --142#0 -12#3 --12#1 -12#2 --12#1 -12#4" />
    <trip id="70" depart="7.00" from="--12#2" to="--148#0" via="--12#2 --12#3 --142#1 --142#0 -12#4 --142#0 --12#1 -148#1 --12#3 -12#2 --148#0 --12#1 -12#4 -12#1 -12#1 --12#3 --148#0 -12#4 -12#4 --12#1 -142#1 --12#2 -12#2 --12#0 --12#1 --12#2 -12#4 -12#1 --148#1 -148#0 --142#1 --12#0 -142#1 -148#1 -12#4 -12#3 -142#0 -12#2 -12#4 -148#1 --12#2 --12#3 --12#0 -12#4 --142#1 -12#4 --12#1 --142#0 --142#1 --12#1" />
    <trip id="71" depart="7.10" from="-12#2" to="-12#1" via="--12#3 -12#3 -12#3 -12#4 --12#0 -12#4 --148#0 --12#2 -12#4 --12#0 --12#2 --12#0 -12#2 -142#0 --12#1 -148#1 -12#4 -12#1 --148#0 -12#3 -148#1 -148#0 --148#1 -148#0 --12#2 -12#3 --12#3 --12#3 -12#1 -12#1 -12#3 -148#0 -12#1 -142#1 --12#0 --142#1 -148#0 -12#4 -12#3 --148#1 --142#0 -142#1 --12#1 --12#1 --12#0 -12#4 --142#1 --12#3 -12#4 --142#0" />