<?xml version="1.0" encoding="UTF-8"?>

<!-- generated on Sat Sep 17 14:24:01 2016 by SUMO duarouter Version 0.25.0D
<?xml version="1.0" encoding="UTF-8"?>

<configuration xmlns:xsi="http://www.w3.org/2001/XMLSchema-instance" xsi:noNamespaceSchemaLocation="http://sumo.dlr.de/xsd/duarouterConfiguration.xsd">

    <input>
        <net-file value="grid.roads.xml"/>
        <trip-files value="trips.trips.xml"/>
    </input>

    <output>
        <output-file value="grid.routes.xml"/>
    </output>

    <processing>
        <ignore-errors value="true"/>
    </processing>

    <time>
        <begin value="0.0"/>
        <end value="10.0"/>
    </time>

    <report>
        <no-warnings value="true"/>
        <no-step-log value="true"/>
    </report>

</configuration>
-->

<routes xmlns:xsi="http://www.w3.org/2001/XMLSchema-instance" xsi:noNamespaceSchemaLocation="http://sumo.dlr.de/xsd/routes_file.xsd">
    <vehicle id="pos_00" depart="0.00">
        <route edges="--40#3 --46#3 -50#1"/>
    </vehicle>
    <vehicle id="pos_01" depart="0.00">
        <route edges="-50#0 -46#3 -40#3"/>
    </vehicle>
    <vehicle id="pos_02" depart="0.00">
        <route edges="--54#1 -50#0 -46#3"/>
    </vehicle>
    <vehicle id="pos_03" depart="0.00">
        <route edges="-54#3 --56#3 -46#0"/>
    </vehicle>
    <vehicle id="pos_04" depart="0.00">
        <route edges="--54#3 -52#0 -52#1"/>
    </vehicle>
    <vehicle id="pos_05" depart="0.00">
        <route edges="-40#3 -54#0 -54#1"/>
    </vehicle>
    <vehicle id="pos_06" depart="0.00">
        <route edges="--46#2 --44#2 -42#2"/>
    </vehicle>
    <vehicle id="pos_07" depart="0.00">
        <route edges="-46#2 -50#1 -50#2"/>
    </vehicle>
    <vehicle id="pos_08" depart="0.00">
        <route edges="-52#1 -52#2 -48#1"/>
    </vehicle>
    <vehicle id="pos_09" depart="0.00">
        <route edges="--56#2 --42#3 -52#2"/>
    </vehicle>
    <vehicle id="pos_10" depart="0.00">
        <route edges="--40#1 --48#3 --48#2"/>
    </vehicle>
    <vehicle id="pos_11" depart="0.00">
        <route edges="-50#2 -50#3 --58#0"/>
    </vehicle>
    <vehicle id="pos_12" depart="0.00">
        <route edges="--44#1 --48#1 --52#2"/>
    </vehicle>
    <vehicle id="pos_13" depart="0.00">
        <route edges="-42#3 --56#1 -48#0"/>
    </vehicle>
    <vehicle id="pos_14" depart="0.00">
        <route edges="--56#1 -48#0 -48#1"/>
    </vehicle>
    <vehicle id="pos_15" depart="0.00">
        <route edges="-40#1 -40#2 -40#3"/>
    </vehicle>
    <vehicle id="pos_16" depart="0.00">
        <route edges="-48#3 -40#1 -40#2"/>
    </vehicle>
    <vehicle id="pos_17" depart="0.00">
        <route edges="-48#2 --50#2 -42#1"/>
    </vehicle>
    <vehicle id="pos_18" depart="0.00">
        <route edges="--52#2 --42#2 --44#1"/>
    </vehicle>
    <vehicle id="pos_19" depart="0.00">
        <route edges="-48#0 -48#1 -48#2"/>
    </vehicle>
    <vehicle id="pos_20" depart="0.00">
        <route edges="-58#0 --50#3 --48#2"/>
    </vehicle>
    <vehicle id="pos_21" depart="0.00">
        <route edges="--50#3 --48#2 --48#1"/>
    </vehicle>
    <vehicle id="pos_22" depart="0.00">
        <route edges="-58#2 --52#3 --52#2"/>
    </vehicle>
    <vehicle id="pos_23" depart="0.00">
        <route edges="-58#3 -56#0 -48#0"/>
    </vehicle>
    <vehicle id="pos_24" depart="0.00">
        <route edges="-56#0 -56#1 -56#2"/>
    </vehicle>
</routes>
