<?xml version="1.0" encoding="UTF-8"?>

<configuration xmlns:xsi="http://www.w3.org/2001/XMLSchema-instance" xsi:noNamespaceSchemaLocation="http://sumo.sf.net/xsd/sumoConfiguration.xsd">

    <input>
        <net-file value="grid.roads.xml"/>
        <route-files value="grid.routes.xml"/>
        <additional-files value="grid.poly.xml"/>
    </input>

    <time>
        <begin value="0"/>
        <end value="1100"/>
        <step-length value="0.1"/>
    </time>

    <gui_only>
        <start value="true"/>
    </gui_only>

</configuration>