<?xml version="1.0" encoding="UTF-8"?>

<!-- generated on Sun Sep 11 23:32:31 2016 by SUMO polyconvert Version 0.25.0D
<?xml version="1.0" encoding="UTF-8"?>

<configuration xmlns:xsi="http://www.w3.org/2001/XMLSchema-instance" xsi:noNamespaceSchemaLocation="http://sumo.dlr.de/xsd/polyconvertConfiguration.xsd">

    <input>
        <net-file value="grid.roads.xml"/>
        <osm-files value="grid.osm"/>
        <type-file value="typemap.xml"/>
    </input>

    <output>
        <output-file value="grid.poly.xml"/>
    </output>

    <processing>
        <ignore-errors value="true"/>
        <poi-layer-offset value="5"/>
    </processing>

</configuration>
-->

<additional xmlns:xsi="http://www.w3.org/2001/XMLSchema-instance" xsi:noNamespaceSchemaLocation="http://sumo.dlr.de/xsd/additional_file.xsd">
</additional>
