<?xml version="1.0" encoding="UTF-8"?>

<!-- generated on Thu Mar 30 14:30:58 2017 by SUMO polyconvert Version 0.25.0D
<?xml version="1.0" encoding="UTF-8"?>

<configuration xmlns:xsi="http://www.w3.org/2001/XMLSchema-instance" xsi:noNamespaceSchemaLocation="http://sumo.dlr.de/xsd/polyconvertConfiguration.xsd">

    <input>
        <net-file value="highway.net.xml"/>
        <osm-files value="highway.clean.osm"/>
        <type-file value="typemap.xml"/>
    </input>

    <output>
        <output-file value="highway.poly.xml"/>
    </output>

    <processing>
        <ignore-errors value="true"/>
        <poi-layer-offset value="5"/>
    </processing>

</configuration>
-->

<additional xmlns:xsi="http://www.w3.org/2001/XMLSchema-instance" xsi:noNamespaceSchemaLocation="http://sumo.dlr.de/xsd/additional_file.xsd">
    <location netOffset="-770520.17,31425.69" convBoundary="0.00,0.00,5166.18,102.57" origBoundary="-0.569608,-0.284051,-0.523223,-0.283133" projParameter="+proj=utm +zone=30 +ellps=WGS84 +datum=WGS84 +units=m +no_defs"/>

</additional>
