<?xml version="1.0"?>
<configuration xmlns:xsi="http://www.w3.org/2001/XMLSchema-instance" xsi:noNamespaceSchemaLocation="http://sumo.sf.net/xsd/sumoConfiguration.xsd">
  <input>
    <additional-files value="highway.reroute.xml"/>
    <route-files value="highway.450.routes.xml"/>
    <net-file value="highway.net.xml"/>
    <weight-files value="highway.weight.xml"/>
    <weight-attribute value="traveltime"/>
  </input>
  <time>
    <begin value="0"/>
    <end value="5000"/>
    <step-length value="0.1"/>
  </time>
  <time-to-teleport value="100"/>
  <time-to-teleport.highways value="50"/>
  <gui_only>
    <start value="true"/>
  </gui_only>
</configuration>
