<?xml version="1.0" encoding="UTF-8"?>

<!-- generated on Thu Mar 30 14:16:24 2017 by SUMO netconvert Version 0.25.0D
<?xml version="1.0" encoding="UTF-8"?>

<configuration xmlns:xsi="http://www.w3.org/2001/XMLSchema-instance" xsi:noNamespaceSchemaLocation="http://sumo.dlr.de/xsd/netconvertConfiguration.xsd">

    <input>
        <type-files value="/home/felipe/Simulation/sumo-0.25.0/data/typemap/osmNetconvert.typ.xml"/>
        <osm-files value="highway.osm"/>
    </input>

    <output>
        <output-file value="highway.net.xml"/>
    </output>

    <projection>
        <proj.utm value="true"/>
    </projection>

    <tls_building>
        <tls.guess value="false"/>
        <tls.join value="true"/>
        <tls.guess-signals value="true"/>
    </tls_building>

    <edge_removal>
        <remove-edges.by-vclass value="truck,tram,rail_urban,rail,rail_electric,hov,taxi,bus,delivery,motorcycle,bicycle,pedestrian"/>
        <remove-edges.isolated value="true"/>
    </edge_removal>

    <processing>
        <no-turnarounds value="true"/>
        <no-turnarounds.tls value="true"/>
        <geometry.remove value="true"/>
    </processing>

    <report>
        <verbose value="true"/>
    </report>

</configuration>
-->

<net version="0.25" xmlns:xsi="http://www.w3.org/2001/XMLSchema-instance" xsi:noNamespaceSchemaLocation="http://sumo.dlr.de/xsd/net_file.xsd">

    <location netOffset="-770520.17,31425.69" convBoundary="0.00,0.00,5166.18,102.57" origBoundary="-0.569608,-0.284051,-0.523223,-0.283133" projParameter="+proj=utm +zone=30 +ellps=WGS84 +datum=WGS84 +units=m +no_defs"/>

    <type id="highway.bridleway" priority="1" numLanes="1" speed="2.78" allow="pedestrian" oneway="1" width="2.00"/>
    <type id="highway.bus_guideway" priority="1" numLanes="1" speed="8.33" allow="bus" oneway="1"/>
    <type id="highway.cycleway" priority="1" numLanes="1" speed="5.56" allow="bicycle" oneway="0" width="1.00"/>
    <type id="highway.footway" priority="1" numLanes="1" speed="8.33" allow="pedestrian" oneway="1" width="2.00"/>
    <type id="highway.ford" priority="1" numLanes="1" speed="2.78" allow="army" oneway="0"/>
    <type id="highway.living_street" priority="3" numLanes="1" speed="2.78" disallow="tram rail_urban rail rail_electric ship" oneway="0"/>
    <type id="highway.motorway" priority="13" numLanes="2" speed="44.44" allow="private emergency authority army vip passenger hov taxi bus coach delivery truck trailer motorcycle evehicle custom1 custom2" oneway="1"/>
    <type id="highway.motorway_link" priority="12" numLanes="1" speed="22.22" allow="private emergency authority army vip passenger hov taxi bus coach delivery truck trailer motorcycle evehicle custom1 custom2" oneway="1"/>
    <type id="highway.path" priority="1" numLanes="1" speed="2.78" allow="bicycle pedestrian" oneway="1" width="2.00"/>
    <type id="highway.pedestrian" priority="1" numLanes="1" speed="8.33" allow="pedestrian" oneway="1" width="2.00"/>
    <type id="highway.primary" priority="9" numLanes="2" speed="27.78" disallow="tram rail_urban rail rail_electric ship" oneway="0"/>
    <type id="highway.primary_link" priority="8" numLanes="1" speed="22.22" disallow="tram rail_urban rail rail_electric ship" oneway="0"/>
    <type id="highway.raceway" priority="14" numLanes="2" speed="83.33" allow="vip" oneway="0"/>
    <type id="highway.residential" priority="4" numLanes="1" speed="13.89" disallow="tram rail_urban rail rail_electric ship" oneway="0"/>
    <type id="highway.secondary" priority="7" numLanes="2" speed="27.78" disallow="tram rail_urban rail rail_electric ship" oneway="0"/>
    <type id="highway.secondary_link" priority="6" numLanes="1" speed="22.22" disallow="tram rail_urban rail rail_electric ship" oneway="0"/>
    <type id="highway.service" priority="2" numLanes="1" speed="5.56" allow="delivery bicycle pedestrian" oneway="0"/>
    <type id="highway.services" priority="1" numLanes="1" speed="8.33" disallow="tram rail_urban rail rail_electric ship" oneway="0"/>
    <type id="highway.stairs" priority="1" numLanes="1" speed="1.39" allow="pedestrian" oneway="1" width="2.00"/>
    <type id="highway.step" priority="1" numLanes="1" speed="1.39" allow="pedestrian" oneway="1" width="2.00"/>
    <type id="highway.steps" priority="1" numLanes="1" speed="1.39" allow="pedestrian" oneway="1" width="2.00"/>
    <type id="highway.tertiary" priority="6" numLanes="1" speed="22.22" disallow="tram rail_urban rail rail_electric ship" oneway="0"/>
    <type id="highway.tertiary_link" priority="5" numLanes="1" speed="22.22" disallow="tram rail_urban rail rail_electric ship" oneway="0"/>
    <type id="highway.track" priority="1" numLanes="1" speed="5.56" disallow="tram rail_urban rail rail_electric ship" oneway="0"/>
    <type id="highway.trunk" priority="11" numLanes="2" speed="27.78" disallow="tram rail_urban rail rail_electric bicycle pedestrian ship" oneway="0"/>
    <type id="highway.trunk_link" priority="10" numLanes="1" speed="22.22" disallow="tram rail_urban rail rail_electric bicycle pedestrian ship" oneway="0"/>
    <type id="highway.unclassified" priority="5" numLanes="1" speed="13.89" disallow="tram rail_urban rail rail_electric ship" oneway="0"/>
    <type id="highway.unsurfaced" priority="1" numLanes="1" speed="8.33" disallow="tram rail_urban rail rail_electric ship" oneway="0"/>
    <type id="railway.light_rail" priority="15" numLanes="1" speed="27.78" allow="rail_urban" oneway="1"/>
    <type id="railway.preserved" priority="15" numLanes="1" speed="27.78" allow="rail" oneway="1"/>
    <type id="railway.rail" priority="15" numLanes="1" speed="83.33" allow="rail rail_electric" oneway="1"/>
    <type id="railway.subway" priority="15" numLanes="1" speed="27.78" allow="rail_urban" oneway="1"/>
    <type id="railway.tram" priority="15" numLanes="1" speed="13.89" allow="tram" oneway="1"/>

    <edge id=":-30472_0" function="internal">
        <lane id=":-30472_0_0" index="0" disallow="tram rail_urban rail rail_electric ship" speed="25.00" length="5.00" shape="132.10,73.56 131.90,72.21 131.31,71.24 130.34,70.66 128.99,70.47"/>
    </edge>
    <edge id=":-30472_1" function="internal">
        <lane id=":-30472_1_0" index="0" disallow="tram rail_urban rail rail_electric ship" speed="25.00" length="17.51" shape="132.10,73.56 132.46,66.43 133.64,61.33 135.63,58.27 138.42,57.23"/>
        <lane id=":-30472_1_1" index="1" disallow="tram rail_urban rail rail_electric ship" speed="25.00" length="17.51" shape="132.10,73.56 132.47,67.87 133.65,63.81 135.64,61.36 138.44,60.53"/>
    </edge>
    <edge id=":-30472_3" function="internal">
        <lane id=":-30472_3_0" index="0" disallow="tram rail_urban rail rail_electric ship" speed="25.00" length="5.00" shape="138.48,70.43 137.13,70.63 136.16,71.22 135.59,72.19 135.40,73.55"/>
    </edge>
    <edge id=":-30472_4" function="internal">
        <lane id=":-30472_4_0" index="0" disallow="tram rail_urban rail rail_electric ship" speed="27.78" length="9.49" shape="138.48,70.43 128.99,70.47"/>
        <lane id=":-30472_4_1" index="1" disallow="tram rail_urban rail rail_electric ship" speed="27.78" length="9.49" shape="138.47,67.13 128.98,67.17"/>
        <lane id=":-30472_4_2" index="2" disallow="tram rail_urban rail rail_electric ship" speed="27.78" length="9.49" shape="138.45,63.83 128.97,63.87"/>
    </edge>
    <edge id=":-30472_7" function="internal">
        <lane id=":-30472_7_0" index="0" disallow="tram rail_urban rail rail_electric ship" speed="27.78" length="9.47" shape="128.94,53.97 138.40,53.93"/>
        <lane id=":-30472_7_1" index="1" disallow="tram rail_urban rail rail_electric ship" speed="27.78" length="9.47" shape="128.95,57.27 138.42,57.23"/>
        <lane id=":-30472_7_2" index="2" disallow="tram rail_urban rail rail_electric ship" speed="27.78" length="9.47" shape="128.96,60.57 138.44,60.53"/>
    </edge>
    <edge id=":-30472_10" function="internal">
        <lane id=":-30472_10_0" index="0" disallow="tram rail_urban rail rail_electric ship" speed="25.00" length="4.05" shape="128.96,60.57 131.75,61.37 132.48,62.26"/>
    </edge>
    <edge id=":-30472_11" function="internal">
        <lane id=":-30472_11_0" index="0" speed="25.00" length="11.94" shape="132.48,62.26 133.76,63.80 134.97,67.86 135.40,73.55"/>
    </edge>
    <edge id=":-30474_0" function="internal">
        <lane id=":-30474_0_0" index="0" disallow="tram rail_urban rail rail_electric ship" speed="27.78" length="9.50" shape="288.47,69.71 278.97,69.75"/>
        <lane id=":-30474_0_1" index="1" disallow="tram rail_urban rail rail_electric ship" speed="27.78" length="9.50" shape="288.46,66.41 278.96,66.45"/>
        <lane id=":-30474_0_2" index="2" disallow="tram rail_urban rail rail_electric ship" speed="27.78" length="9.50" shape="288.44,63.11 278.94,63.15"/>
    </edge>
    <edge id=":-30474_3" function="internal">
        <lane id=":-30474_3_0" index="0" disallow="tram rail_urban rail rail_electric ship" speed="25.00" length="4.06" shape="288.44,63.11 285.64,62.31 284.91,61.42"/>
    </edge>
    <edge id=":-30474_11" function="internal">
        <lane id=":-30474_11_0" index="0" speed="25.00" length="11.94" shape="284.91,61.42 283.63,59.88 282.41,55.82 281.98,50.14"/>
    </edge>
    <edge id=":-30474_4" function="internal">
        <lane id=":-30474_4_0" index="0" disallow="tram rail_urban rail rail_electric ship" speed="25.00" length="5.00" shape="285.28,50.12 285.48,51.48 286.07,52.44 287.04,53.02 288.39,53.21"/>
    </edge>
    <edge id=":-30474_5" function="internal">
        <lane id=":-30474_5_0" index="0" disallow="tram rail_urban rail rail_electric ship" speed="25.00" length="17.51" shape="285.28,50.12 284.91,57.25 283.74,62.35 281.75,65.42 278.96,66.45"/>
        <lane id=":-30474_5_1" index="1" disallow="tram rail_urban rail rail_electric ship" speed="25.00" length="17.51" shape="285.28,50.12 284.91,55.81 283.73,59.88 281.74,62.33 278.94,63.15"/>
    </edge>
    <edge id=":-30474_7" function="internal">
        <lane id=":-30474_7_0" index="0" disallow="tram rail_urban rail rail_electric ship" speed="25.00" length="5.00" shape="278.89,53.25 280.25,53.05 281.22,52.47 281.79,51.49 281.98,50.14"/>
    </edge>
    <edge id=":-30474_8" function="internal">
        <lane id=":-30474_8_0" index="0" disallow="tram rail_urban rail rail_electric ship" speed="27.78" length="9.50" shape="278.89,53.25 288.39,53.21"/>
        <lane id=":-30474_8_1" index="1" disallow="tram rail_urban rail rail_electric ship" speed="27.78" length="9.50" shape="278.91,56.55 288.41,56.51"/>
        <lane id=":-30474_8_2" index="2" disallow="tram rail_urban rail rail_electric ship" speed="27.78" length="9.50" shape="278.93,59.85 288.43,59.81"/>
    </edge>
    <edge id=":-30476_0" function="internal">
        <lane id=":-30476_0_0" index="0" disallow="tram rail_urban rail rail_electric ship" speed="25.00" length="5.00" shape="482.35,71.86 482.15,70.51 481.57,69.54 480.60,68.97 479.24,68.78"/>
    </edge>
    <edge id=":-30476_1" function="internal">
        <lane id=":-30476_1_0" index="0" disallow="tram rail_urban rail rail_electric ship" speed="25.00" length="17.51" shape="482.35,71.86 482.72,64.73 483.89,59.63 485.88,56.57 488.68,55.53"/>
        <lane id=":-30476_1_1" index="1" disallow="tram rail_urban rail rail_electric ship" speed="25.00" length="17.51" shape="482.35,71.86 482.73,66.18 483.91,62.11 485.89,59.66 488.69,58.83"/>
    </edge>
    <edge id=":-30476_3" function="internal">
        <lane id=":-30476_3_0" index="0" disallow="tram rail_urban rail rail_electric ship" speed="25.00" length="5.00" shape="488.74,68.73 487.38,68.93 486.42,69.52 485.84,70.49 485.65,71.85"/>
    </edge>
    <edge id=":-30476_4" function="internal">
        <lane id=":-30476_4_0" index="0" disallow="tram rail_urban rail rail_electric ship" speed="27.78" length="9.50" shape="488.74,68.73 479.24,68.78"/>
        <lane id=":-30476_4_1" index="1" disallow="tram rail_urban rail rail_electric ship" speed="27.78" length="9.50" shape="488.72,65.43 479.22,65.48"/>
        <lane id=":-30476_4_2" index="2" disallow="tram rail_urban rail rail_electric ship" speed="27.78" length="9.50" shape="488.71,62.13 479.21,62.18"/>
    </edge>
    <edge id=":-30476_7" function="internal">
        <lane id=":-30476_7_0" index="0" disallow="tram rail_urban rail rail_electric ship" speed="27.78" length="9.50" shape="479.16,52.28 488.66,52.23"/>
        <lane id=":-30476_7_1" index="1" disallow="tram rail_urban rail rail_electric ship" speed="27.78" length="9.50" shape="479.18,55.58 488.68,55.53"/>
        <lane id=":-30476_7_2" index="2" disallow="tram rail_urban rail rail_electric ship" speed="27.78" length="9.50" shape="479.19,58.88 488.69,58.83"/>
    </edge>
    <edge id=":-30476_10" function="internal">
        <lane id=":-30476_10_0" index="0" disallow="tram rail_urban rail rail_electric ship" speed="25.00" length="4.06" shape="479.19,58.88 481.99,59.68 482.73,60.56"/>
    </edge>
    <edge id=":-30476_11" function="internal">
        <lane id=":-30476_11_0" index="0" speed="25.00" length="11.94" shape="482.73,60.56 484.01,62.11 485.23,66.16 485.65,71.85"/>
    </edge>
    <edge id=":-30478_0" function="internal">
        <lane id=":-30478_0_0" index="0" disallow="tram rail_urban rail rail_electric ship" speed="27.78" length="9.50" shape="688.79,67.76 679.29,67.81"/>
        <lane id=":-30478_0_1" index="1" disallow="tram rail_urban rail rail_electric ship" speed="27.78" length="9.50" shape="688.78,64.46 679.28,64.51"/>
        <lane id=":-30478_0_2" index="2" disallow="tram rail_urban rail rail_electric ship" speed="27.78" length="9.50" shape="688.76,61.16 679.26,61.21"/>
    </edge>
    <edge id=":-30478_3" function="internal">
        <lane id=":-30478_3_0" index="0" disallow="tram rail_urban rail rail_electric ship" speed="25.00" length="4.06" shape="688.76,61.16 685.96,60.36 685.22,59.48"/>
    </edge>
    <edge id=":-30478_11" function="internal">
        <lane id=":-30478_11_0" index="0" speed="25.00" length="11.94" shape="685.22,59.48 683.94,57.94 682.72,53.88 682.30,48.19"/>
    </edge>
    <edge id=":-30478_4" function="internal">
        <lane id=":-30478_4_0" index="0" disallow="tram rail_urban rail rail_electric ship" speed="25.00" length="5.00" shape="685.60,48.18 685.80,49.53 686.38,50.50 687.35,51.08 688.71,51.26"/>
    </edge>
    <edge id=":-30478_5" function="internal">
        <lane id=":-30478_5_0" index="0" disallow="tram rail_urban rail rail_electric ship" speed="25.00" length="17.51" shape="685.60,48.18 685.23,55.31 684.06,60.41 682.07,63.48 679.28,64.51"/>
        <lane id=":-30478_5_1" index="1" disallow="tram rail_urban rail rail_electric ship" speed="25.00" length="17.51" shape="685.60,48.18 685.22,53.87 684.04,57.94 682.06,60.38 679.26,61.21"/>
    </edge>
    <edge id=":-30478_7" function="internal">
        <lane id=":-30478_7_0" index="0" disallow="tram rail_urban rail rail_electric ship" speed="25.00" length="5.00" shape="679.21,51.31 680.57,51.11 681.53,50.52 682.11,49.55 682.30,48.19"/>
    </edge>
    <edge id=":-30478_8" function="internal">
        <lane id=":-30478_8_0" index="0" disallow="tram rail_urban rail rail_electric ship" speed="27.78" length="9.50" shape="679.21,51.31 688.71,51.26"/>
        <lane id=":-30478_8_1" index="1" disallow="tram rail_urban rail rail_electric ship" speed="27.78" length="9.50" shape="679.23,54.61 688.73,54.56"/>
        <lane id=":-30478_8_2" index="2" disallow="tram rail_urban rail rail_electric ship" speed="27.78" length="9.50" shape="679.24,57.91 688.74,57.86"/>
    </edge>
    <edge id=":-30480_0" function="internal">
        <lane id=":-30480_0_0" index="0" disallow="tram rail_urban rail rail_electric ship" speed="25.00" length="5.00" shape="882.53,69.92 882.33,68.57 881.74,67.60 880.77,67.03 879.41,66.84"/>
    </edge>
    <edge id=":-30480_1" function="internal">
        <lane id=":-30480_1_0" index="0" disallow="tram rail_urban rail rail_electric ship" speed="25.00" length="17.51" shape="882.53,69.92 882.89,62.79 884.07,57.69 886.05,54.62 888.85,53.59"/>
        <lane id=":-30480_1_1" index="1" disallow="tram rail_urban rail rail_electric ship" speed="25.00" length="17.51" shape="882.53,69.92 882.90,64.23 884.08,60.17 886.07,57.72 888.86,56.89"/>
    </edge>
    <edge id=":-30480_3" function="internal">
        <lane id=":-30480_3_0" index="0" disallow="tram rail_urban rail rail_electric ship" speed="25.00" length="5.00" shape="888.91,66.79 887.56,66.99 886.59,67.58 886.01,68.55 885.83,69.91"/>
    </edge>
    <edge id=":-30480_4" function="internal">
        <lane id=":-30480_4_0" index="0" disallow="tram rail_urban rail rail_electric ship" speed="27.78" length="9.50" shape="888.91,66.79 879.41,66.84"/>
        <lane id=":-30480_4_1" index="1" disallow="tram rail_urban rail rail_electric ship" speed="27.78" length="9.50" shape="888.90,63.49 879.40,63.54"/>
        <lane id=":-30480_4_2" index="2" disallow="tram rail_urban rail rail_electric ship" speed="27.78" length="9.50" shape="888.88,60.19 879.38,60.24"/>
    </edge>
    <edge id=":-30480_7" function="internal">
        <lane id=":-30480_7_0" index="0" disallow="tram rail_urban rail rail_electric ship" speed="27.78" length="9.50" shape="879.33,50.34 888.83,50.29"/>
        <lane id=":-30480_7_1" index="1" disallow="tram rail_urban rail rail_electric ship" speed="27.78" length="9.50" shape="879.35,53.64 888.85,53.59"/>
        <lane id=":-30480_7_2" index="2" disallow="tram rail_urban rail rail_electric ship" speed="27.78" length="9.50" shape="879.36,56.94 888.86,56.89"/>
    </edge>
    <edge id=":-30480_10" function="internal">
        <lane id=":-30480_10_0" index="0" disallow="tram rail_urban rail rail_electric ship" speed="25.00" length="4.06" shape="879.36,56.94 882.17,57.74 882.90,58.62"/>
    </edge>
    <edge id=":-30480_11" function="internal">
        <lane id=":-30480_11_0" index="0" speed="25.00" length="11.94" shape="882.90,58.62 884.18,60.16 885.40,64.22 885.83,69.91"/>
    </edge>
    <edge id=":-30482_0" function="internal">
        <lane id=":-30482_0_0" index="0" disallow="tram rail_urban rail rail_electric ship" speed="27.78" length="9.50" shape="1089.05,65.82 1079.55,65.87"/>
        <lane id=":-30482_0_1" index="1" disallow="tram rail_urban rail rail_electric ship" speed="27.78" length="9.50" shape="1089.04,62.52 1079.54,62.57"/>
        <lane id=":-30482_0_2" index="2" disallow="tram rail_urban rail rail_electric ship" speed="27.78" length="9.50" shape="1089.02,59.22 1079.52,59.27"/>
    </edge>
    <edge id=":-30482_3" function="internal">
        <lane id=":-30482_3_0" index="0" disallow="tram rail_urban rail rail_electric ship" speed="25.00" length="4.06" shape="1089.02,59.22 1086.22,58.42 1085.48,57.54"/>
    </edge>
    <edge id=":-30482_11" function="internal">
        <lane id=":-30482_11_0" index="0" speed="25.00" length="11.94" shape="1085.48,57.54 1084.21,55.99 1082.99,51.94 1082.56,46.25"/>
    </edge>
    <edge id=":-30482_4" function="internal">
        <lane id=":-30482_4_0" index="0" disallow="tram rail_urban rail rail_electric ship" speed="25.00" length="5.00" shape="1085.86,46.24 1086.06,47.59 1086.64,48.56 1087.62,49.13 1088.97,49.32"/>
    </edge>
    <edge id=":-30482_5" function="internal">
        <lane id=":-30482_5_0" index="0" disallow="tram rail_urban rail rail_electric ship" speed="25.00" length="17.51" shape="1085.86,46.24 1085.49,53.37 1084.32,58.47 1082.33,61.53 1079.54,62.57"/>
        <lane id=":-30482_5_1" index="1" disallow="tram rail_urban rail rail_electric ship" speed="25.00" length="17.51" shape="1085.86,46.24 1085.49,51.93 1084.31,55.99 1082.32,58.44 1079.52,59.27"/>
    </edge>
    <edge id=":-30482_7" function="internal">
        <lane id=":-30482_7_0" index="0" disallow="tram rail_urban rail rail_electric ship" speed="25.00" length="5.00" shape="1079.47,49.37 1080.83,49.17 1081.79,48.58 1082.37,47.61 1082.56,46.25"/>
    </edge>
    <edge id=":-30482_8" function="internal">
        <lane id=":-30482_8_0" index="0" disallow="tram rail_urban rail rail_electric ship" speed="27.78" length="9.50" shape="1079.47,49.37 1088.97,49.32"/>
        <lane id=":-30482_8_1" index="1" disallow="tram rail_urban rail rail_electric ship" speed="27.78" length="9.50" shape="1079.49,52.67 1088.99,52.62"/>
        <lane id=":-30482_8_2" index="2" disallow="tram rail_urban rail rail_electric ship" speed="27.78" length="9.50" shape="1079.50,55.97 1089.00,55.92"/>
    </edge>
    <edge id=":-30484_0" function="internal">
        <lane id=":-30484_0_0" index="0" disallow="tram rail_urban rail rail_electric ship" speed="25.00" length="5.00" shape="1282.76,67.98 1282.56,66.63 1281.97,65.66 1281.00,65.08 1279.64,64.90"/>
    </edge>
    <edge id=":-30484_1" function="internal">
        <lane id=":-30484_1_0" index="0" disallow="tram rail_urban rail rail_electric ship" speed="25.00" length="17.51" shape="1282.76,67.98 1283.12,60.85 1284.30,55.75 1286.28,52.68 1289.08,51.65"/>
        <lane id=":-30484_1_1" index="1" disallow="tram rail_urban rail rail_electric ship" speed="25.00" length="17.51" shape="1282.76,67.98 1283.13,62.29 1284.31,58.22 1286.30,55.78 1289.09,54.95"/>
    </edge>
    <edge id=":-30484_3" function="internal">
        <lane id=":-30484_3_0" index="0" disallow="tram rail_urban rail rail_electric ship" speed="25.00" length="5.00" shape="1289.14,64.85 1287.79,65.05 1286.82,65.64 1286.24,66.61 1286.06,67.96"/>
    </edge>
    <edge id=":-30484_4" function="internal">
        <lane id=":-30484_4_0" index="0" disallow="tram rail_urban rail rail_electric ship" speed="27.78" length="9.50" shape="1289.14,64.85 1279.64,64.90"/>
        <lane id=":-30484_4_1" index="1" disallow="tram rail_urban rail rail_electric ship" speed="27.78" length="9.50" shape="1289.13,61.55 1279.63,61.60"/>
        <lane id=":-30484_4_2" index="2" disallow="tram rail_urban rail rail_electric ship" speed="27.78" length="9.50" shape="1289.11,58.25 1279.61,58.30"/>
    </edge>
    <edge id=":-30484_7" function="internal">
        <lane id=":-30484_7_0" index="0" disallow="tram rail_urban rail rail_electric ship" speed="27.78" length="9.50" shape="1279.56,48.40 1289.06,48.35"/>
        <lane id=":-30484_7_1" index="1" disallow="tram rail_urban rail rail_electric ship" speed="27.78" length="9.50" shape="1279.58,51.70 1289.08,51.65"/>
        <lane id=":-30484_7_2" index="2" disallow="tram rail_urban rail rail_electric ship" speed="27.78" length="9.50" shape="1279.59,55.00 1289.09,54.95"/>
    </edge>
    <edge id=":-30484_10" function="internal">
        <lane id=":-30484_10_0" index="0" disallow="tram rail_urban rail rail_electric ship" speed="25.00" length="4.06" shape="1279.59,55.00 1282.40,55.79 1283.13,56.68"/>
    </edge>
    <edge id=":-30484_11" function="internal">
        <lane id=":-30484_11_0" index="0" speed="25.00" length="11.94" shape="1283.13,56.68 1284.41,58.22 1285.63,62.28 1286.06,67.96"/>
    </edge>
    <edge id=":-30486_0" function="internal">
        <lane id=":-30486_0_0" index="0" disallow="tram rail_urban rail rail_electric ship" speed="27.78" length="9.50" shape="1489.29,63.88 1479.79,63.92"/>
        <lane id=":-30486_0_1" index="1" disallow="tram rail_urban rail rail_electric ship" speed="27.78" length="9.50" shape="1489.27,60.58 1479.77,60.62"/>
        <lane id=":-30486_0_2" index="2" disallow="tram rail_urban rail rail_electric ship" speed="27.78" length="9.50" shape="1489.25,57.28 1479.75,57.32"/>
    </edge>
    <edge id=":-30486_3" function="internal">
        <lane id=":-30486_3_0" index="0" disallow="tram rail_urban rail rail_electric ship" speed="25.00" length="4.06" shape="1489.25,57.28 1486.45,56.48 1485.72,55.60"/>
    </edge>
    <edge id=":-30486_11" function="internal">
        <lane id=":-30486_11_0" index="0" speed="25.00" length="11.94" shape="1485.72,55.60 1484.44,54.05 1483.22,50.00 1482.79,44.31"/>
    </edge>
    <edge id=":-30486_4" function="internal">
        <lane id=":-30486_4_0" index="0" disallow="tram rail_urban rail rail_electric ship" speed="25.00" length="5.00" shape="1486.09,44.29 1486.29,45.65 1486.88,46.61 1487.85,47.19 1489.21,47.38"/>
    </edge>
    <edge id=":-30486_5" function="internal">
        <lane id=":-30486_5_0" index="0" disallow="tram rail_urban rail rail_electric ship" speed="25.00" length="17.51" shape="1486.09,44.29 1485.73,51.43 1484.55,56.53 1482.57,59.59 1479.77,60.62"/>
        <lane id=":-30486_5_1" index="1" disallow="tram rail_urban rail rail_electric ship" speed="25.00" length="17.51" shape="1486.09,44.29 1485.72,49.98 1484.54,54.05 1482.55,56.50 1479.75,57.32"/>
    </edge>
    <edge id=":-30486_7" function="internal">
        <lane id=":-30486_7_0" index="0" disallow="tram rail_urban rail rail_electric ship" speed="25.00" length="5.00" shape="1479.71,47.42 1481.06,47.22 1482.03,46.64 1482.60,45.67 1482.79,44.31"/>
    </edge>
    <edge id=":-30486_8" function="internal">
        <lane id=":-30486_8_0" index="0" disallow="tram rail_urban rail rail_electric ship" speed="27.78" length="9.50" shape="1479.71,47.42 1489.21,47.38"/>
        <lane id=":-30486_8_1" index="1" disallow="tram rail_urban rail rail_electric ship" speed="27.78" length="9.50" shape="1479.72,50.72 1489.22,50.68"/>
        <lane id=":-30486_8_2" index="2" disallow="tram rail_urban rail rail_electric ship" speed="27.78" length="9.50" shape="1479.74,54.02 1489.24,53.98"/>
    </edge>
    <edge id=":-30488_0" function="internal">
        <lane id=":-30488_0_0" index="0" disallow="tram rail_urban rail rail_electric ship" speed="25.00" length="5.00" shape="1683.61,66.04 1683.41,64.68 1682.83,63.71 1681.86,63.14 1680.50,62.95"/>
    </edge>
    <edge id=":-30488_1" function="internal">
        <lane id=":-30488_1_0" index="0" disallow="tram rail_urban rail rail_electric ship" speed="25.00" length="17.51" shape="1683.61,66.04 1683.98,58.90 1685.16,53.80 1687.14,50.74 1689.94,49.70"/>
        <lane id=":-30488_1_1" index="1" disallow="tram rail_urban rail rail_electric ship" speed="25.00" length="17.51" shape="1683.61,66.04 1683.99,60.35 1685.17,56.28 1687.16,53.83 1689.95,53.00"/>
    </edge>
    <edge id=":-30488_3" function="internal">
        <lane id=":-30488_3_0" index="0" disallow="tram rail_urban rail rail_electric ship" speed="25.00" length="5.00" shape="1690.00,62.90 1688.64,63.10 1687.68,63.69 1687.10,64.66 1686.91,66.02"/>
    </edge>
    <edge id=":-30488_4" function="internal">
        <lane id=":-30488_4_0" index="0" disallow="tram rail_urban rail rail_electric ship" speed="27.78" length="9.50" shape="1690.00,62.90 1680.50,62.95"/>
        <lane id=":-30488_4_1" index="1" disallow="tram rail_urban rail rail_electric ship" speed="27.78" length="9.50" shape="1689.98,59.60 1680.48,59.65"/>
        <lane id=":-30488_4_2" index="2" disallow="tram rail_urban rail rail_electric ship" speed="27.78" length="9.50" shape="1689.97,56.30 1680.47,56.35"/>
    </edge>
    <edge id=":-30488_7" function="internal">
        <lane id=":-30488_7_0" index="0" disallow="tram rail_urban rail rail_electric ship" speed="27.78" length="9.50" shape="1680.42,46.45 1689.92,46.40"/>
        <lane id=":-30488_7_1" index="1" disallow="tram rail_urban rail rail_electric ship" speed="27.78" length="9.50" shape="1680.44,49.75 1689.94,49.70"/>
        <lane id=":-30488_7_2" index="2" disallow="tram rail_urban rail rail_electric ship" speed="27.78" length="9.50" shape="1680.45,53.05 1689.95,53.00"/>
    </edge>
    <edge id=":-30488_10" function="internal">
        <lane id=":-30488_10_0" index="0" disallow="tram rail_urban rail rail_electric ship" speed="25.00" length="4.06" shape="1680.45,53.05 1683.26,53.85 1683.99,54.73"/>
    </edge>
    <edge id=":-30488_11" function="internal">
        <lane id=":-30488_11_0" index="0" speed="25.00" length="11.94" shape="1683.99,54.73 1685.27,56.28 1686.49,60.33 1686.91,66.02"/>
    </edge>
    <edge id=":-30490_0" function="internal">
        <lane id=":-30490_0_0" index="0" disallow="tram rail_urban rail rail_electric ship" speed="27.78" length="9.50" shape="1890.02,61.93 1880.52,61.98"/>
        <lane id=":-30490_0_1" index="1" disallow="tram rail_urban rail rail_electric ship" speed="27.78" length="9.50" shape="1890.01,58.63 1880.51,58.68"/>
        <lane id=":-30490_0_2" index="2" disallow="tram rail_urban rail rail_electric ship" speed="27.78" length="9.50" shape="1889.99,55.33 1880.49,55.38"/>
    </edge>
    <edge id=":-30490_3" function="internal">
        <lane id=":-30490_3_0" index="0" disallow="tram rail_urban rail rail_electric ship" speed="25.00" length="4.06" shape="1889.99,55.33 1887.19,54.53 1886.45,53.65"/>
    </edge>
    <edge id=":-30490_11" function="internal">
        <lane id=":-30490_11_0" index="0" speed="25.00" length="11.94" shape="1886.45,53.65 1885.17,52.11 1883.95,48.05 1883.53,42.36"/>
    </edge>
    <edge id=":-30490_4" function="internal">
        <lane id=":-30490_4_0" index="0" disallow="tram rail_urban rail rail_electric ship" speed="25.00" length="5.00" shape="1886.83,42.35 1887.03,43.70 1887.61,44.67 1888.58,45.25 1889.94,45.43"/>
    </edge>
    <edge id=":-30490_5" function="internal">
        <lane id=":-30490_5_0" index="0" disallow="tram rail_urban rail rail_electric ship" speed="25.00" length="17.51" shape="1886.83,42.35 1886.46,49.48 1885.29,54.58 1883.30,57.65 1880.51,58.68"/>
        <lane id=":-30490_5_1" index="1" disallow="tram rail_urban rail rail_electric ship" speed="25.00" length="17.51" shape="1886.83,42.35 1886.45,48.04 1885.27,52.11 1883.29,54.55 1880.49,55.38"/>
    </edge>
    <edge id=":-30490_7" function="internal">
        <lane id=":-30490_7_0" index="0" disallow="tram rail_urban rail rail_electric ship" speed="25.00" length="5.00" shape="1880.44,45.48 1881.80,45.28 1882.76,44.69 1883.34,43.72 1883.53,42.36"/>
    </edge>
    <edge id=":-30490_8" function="internal">