<?xml version="1.0"?>
<!-- generated on 2017-03-30 14:16:21.962112 by $Id: randomTrips.py 19495 2015-12-02 12:36:28Z behrisch $
  options: -n highway.net.xml <doubleminus>begin 0 <doubleminus>end 5.00 <doubleminus>period 0.1 <doubleminus>min-distance 500 <doubleminus>fringe-factor 1 <doubleminus>intermediate 50 <doubleminus>trip-attributes=departSpeed="max"  departPos="random"  type="fastCar" -a highway.50.randomTrips.xml -o highway.50.trips.xml <doubleminus>weights-prefix highway
-->
<trips>
    <trip id="0" depart="0.00" from="--75566#24" to="--75566#0" via="-75566#19 -75566#11 -75566#1 -75566#22 -75566#2 --75566#25 --75566#18 -75566#26 -75566#20 --75566#21 --75566#7 --75566#11 --75566#9 -75566#17 -75566#7 --75566#7 -75566#18 -75566#5 --75566#25 --75566#18 -75566#21 -75566#18 --75566#20 --75566#0 -75566#22 -75566#26 -75566#11 --75566#7 -75566#21 -75566#12 -75566#12 --75566#4 --75566#13 --75566#8 -75566#5 --75566#6 -75566#17 --75566#8 --75566#4 --75566#23 --75566#25 --75566#25 --75566#11 -75566#3 -75566#20 -75566#16 -75566#8 --75566#12 --75566#8 --75566#12" departSpeed="max"  departPos="random"  type="fastCar"/>
    <trip id="1" depart="0.10" from="--75566#2" to="-75566#26" via="-75566#18 --75566#0 --75566#17 --75566#7 --75566#12 --75566#6 -75566#19 -75566#12 -75566#21 --75566#14 -75566#15 --75566#22 --75566#6 --75566#15 --75566#4 -75566#5 -75566#13 --75566#16 --75566#0 --75566#24 --75566#2 -75566#0 -75566#0 --75566#15 -75566#20 -75566#13 -75566#3 --75566#18 -75566#19 --75566#14 -75566#20 -75566#9 --75566#21 -75566#24 --75566#26 -75566#8 --75566#17 -75566#22 --75566#11 --75566#7 --75566#26 -75566#11 --75566#16 -75566#22 --75566#25 --75566#13 --75566#17 -75566#4 --75566#17 -75566#12" departSpeed="max"  departPos="random"  type="fastCar"/>
    <trip id="2" depart="0.20" from="--75566#21" to="--75566#0" via="--75566#9 --75566#11 -75566#1 -75566#20 -75566#7 --75566#17 --75566#11 --75566#3 --75566#9 --75566#2 -75566#5 -75566#23 -75566#13 -75566#17 --75566#11 --75566#2 -75566#8 --75566#25 --75566#10 -75566#18 -75566#0 -75566#13 --75566#7 -75566#4 -75566#13 --75566#19 -75566#25 -75566#23 -75566#9 --75566#2 --75566#1 -75566#21 -75566#20 -75566#13 -75566#8 -75566#17 -75566#3 --75566#17 -75566#8 --75566#15 -75566#3 --75566#0 --75566#18 --75566#6 -75566#24 -75566#12 -75566#15 --75566#10 -75566#26 -75566#25" departSpeed="max"  departPos="random"  type="fastCar"/>
    <trip id="3" depart="0.30" from="-75566#20" to="--75566#0" via="-75566#9 -75566#11 -75566#21 -75566#21 -75566#8 -75566#23 -75566#25 -75566#20 -75566#24 -75566#5 -75566#22 --75566#18 --75566#13 -75566#21 --75566#24 --75566#24 -75566#4 -75566#9 -75566#10 -75566#11 -75566#21 --75566#15 --75566#9 --75566#12 --75566#7 --75566#19 -75566#22 -75566#17 --75566#13 -75566#17 -75566#17 --75566#8 --75566#3 --75566#0 -75566#25 --75566#15 -75566#26 --75566#14 --75566#4 -75566#2 --75566#18 -75566#10 --75566#13 --75566#9 --75566#11 --75566#14 --75566#13 -75566#16 -75566#22 -75566#10" departSpeed="max"  departPos="random"  type="fastCar"/>
    <trip id="4" depart="0.40" from="--75566#17" to="--75566#0" via="--75566#12 -75566#3 -75566#26 -75566#4 --75566#26 -75566#10 -75566#15 -75566#20 -75566#11 --75566#7 --75566#25 -75566#25 --75566#16 -75566#15 --75566#17 -75566#11 --75566#23 -75566#0 --75566#3 --75566#4 --75566#0 -75566#10 --75566#14 --75566#6 --75566#3 -75566#10 --75566#17 --75566#8 --75566#10 -75566#4 -75566#7 --75566#23 -75566#5 -75566#2 --75566#7 -75566#9 --75566#2 --75566#18 -75566#24 --75566#13 --75566#13 --75566#2 --75566#10 --75566#22 --75566#13 -75566#4 --75566#12 -75566#3 -75566#10 -75566#12" departSpeed="max"  departPos="random"  type="fastCar"/>
    <trip id="5" depart="0.50" from="--75566#15" to="-75566#26" via="--75566#0 -75566#22 -75566#20 -75566#19 --75566#19 --75566#9 -75566#25 -75566#12 -75566#17 -75566#16 -75566#5 --75566#22 -75566#20 --75566#15 --75566#12 --75566#23 --75566#10 -75566#14 -75566#2 -75566#9 --75566#0 --75566#20 --75566#0 -75566#4 --75566#7 -75566#23 -75566#22 --75566#6 -75566#23 -75566#14 --75566#10 --75566#17 --75566#9 --75566#17 -75566#0 --75566#25 -75566#6 -75566#21 --75566#22 --75566#21 -75566#20 --75566#15 --75566#8 -75566#18 --75566#18 -75566#17 -75566#7 --75566#3 --75566#17 --75566#16" departSpeed="max"  departPos="random"  type="fastCar"/>
    <trip id="6" depart="0.60" from="-75566#25" to="-75566#26" via="-75566#21 --75566#25 -75566#0 --75566#2 -75566#6 --75566#24 --75566#22 -75566#10 -75566#14 --75566#19 -75566#17 --75566#19 --75566#6 --75566#25 --75566#8 --75566#2 --75566#14 -75566#22 -75566#17 -75566#22 -75566#26 --75566#19 -75566#16 --75566#20 -75566#4 --75566#18 -75566#15 -75566#16 -75566#7 -75566#0 --75566#7 -75566#11 --75566#24 --75566#17 -75566#15 -75566#15 -75566#25 -75566#12 --75566#5 --75566#18 --75566#16 -75566#7 -75566#7 -75566#3 --75566#18 --75566#25 -75566#24 -75566#0 --75566#12 -75566#12" departSpeed="max"  departPos="random"  type="fastCar"/>
    <trip id="7" depart="0.70" from="-75566#4" to="-75566#26" via="--75566#17 --75566#0 --75566#1 -75566#26 -75566#3 -75566#19 -75566#3 --75566#11 -75566#3 -75566#14 --75566#10 -75566#8 -75566#0 --75566#19 --75566#0 --75566#13 --75566#21 --75566#12 -75566#9 -75566#22 --75566#2 --75566#24 -75566#0 -75566#20 -75566#25 --75566#18 -75566#1 -75566#18 --75566#14 -75566#14 -75566#4 -75566#23 -75566#23 -75566#10 -75566#25 -75566#10 --75566#21 --75566#2 -75566#26 -75566#16 -75566#1 -75566#4 -75566#19 -75566#1 -75566#21 -75566#26 --75566#21 -75566#16 -75566#19 -75566#5" departSpeed="max"  departPos="random"  type="fastCar"/>
    <trip id="8" depart="0.80" from="--75566#20" to="-75566#26" via="--75566#20 -75566#13 -75566#10 -75566#16 --75566#7 --75566#18 -75566#18 -75566#6 -75566#0 -75566#15 --75566#14 -75566#20 --75566#25 -75566#12 --75566#20 --75566#11 -75566#10 --75566#22 -75566#12 --75566#14 -75566#13 --75566#23 --75566#5 -75566#17 --75566#3 --75566#1 --75566#13 --75566#1 --75566#7 --75566#18 --75566#4 --75566#21 -75566#26 --75566#8 --75566#18 -75566#0 -75566#8 -75566#19 -75566#3 --75566#0 -75566#23 -75566#14 --75566#20 --75566#13 --75566#23 --75566#17 -75566#7 --75566#22 --75566#8 --75566#25" departSpeed="max"  departPos="random"  type="fastCar"/>
    <trip id="9" depart="0.90" from="-75566#10" to="--75566#0" via="-75566#26 --75566#19 -75566#8 --75566#8 -75566#24 --75566#26 --75566#18 -75566#17 -75566#17 -75566#13 --75566#18 --75566#8 --75566#9 --75566#2 --75566#23 --75566#4 --75566#14 -75566#1 -75566#5 --75566#5 -75566#17 --75566#17 --75566#14 -75566#16 --75566#11 --75566#24 --75566#17 --75566#25 --75566#25 -75566#4 -75566#23 --75566#19 --75566#18 --75566#25 -75566#9 --75566#14 -75566#2 --75566#24 --75566#16 -75566#19 --75566#14 --75566#17 -75566#4 --75566#22 --75566#11 --75566#10 --75566#19 --75566#2 -75566#26 -75566#9" departSpeed="max"  departPos="random"  type="fastCar"/>
    <trip id="10" depart="1.00" from="-75566#13" to="-75566#26" via="-75566#23 --75566#9 --75566#20 -75566#23 --75566#6 --75566#8 --75566#26 --75566#8 -75566#4 --75566#20 -75566#0 -75566#2 -75566#14 --75566#0 --75566#5 --75566#12 --75566#20 -75566#13 -75566#1 --75566#4 -75566#15 -75566#22 -75566#18 --75566#18 --75566#20 -75566#12 --75566#23 -75566#23 --75566#10 --75566#15 --75566#1 --75566#3 -75566#23 --75566#6 -75566#18 -75566#17 --75566#18 --75566#5 --75566#0 -75566#26 -75566#4 -75566#24 -75566#22 -75566#0 -75566#17 --75566#11 --75566#26 -75566#9 --75566#6 -75566#7" departSpeed="max"  departPos="random"  type="fastCar"/>
    <trip id="11" depart="1.10" from="--75566#20" to="-75566#26" via="--75566#12 --75566#0 --75566#21 -75566#14 --75566#19 --75566#3 -75566#14 --75566#25 -75566#5 --75566#18 -75566#24 -75566#26 -75566#19 -75566#4 --75566#4 --75566#10 --75566#26 --75566#24 -75566#17 -75566#13 -75566#2 -75566#5 -75566#23 --75566#2 --75566#25 --75566#24 --75566#23 -75566#4 -75566#26 --75566#0 --75566#4 -75566#2 --75566#11 --75566#16 --75566#24 --75566#3 -75566#13 -75566#18 -75566#21 --75566#9 --75566#1 -75566#5 --75566#19 --75566#11 --75566#0 --75566#26 --75566#1 --75566#14 -75566#10 -75566#12" departSpeed="max"  departPos="random"  type="fastCar"/>
    <trip id="12" depart="1.20" from="--75566#11" to="-75566#26" via="-75566#16 -75566#26 --75566#21 --75566#8 --75566#16 --75566#10 -75566#19 -75566#26 --75566#6 --75566#1 --75566#10 -75566#19 -75566#11 -75566#12 -75566#12 --75566#15 -75566#14 --75566#6 --75566#13 --75566#5 --75566#0 -75566#23 --75566#11 --75566#23 --75566#6 --75566#25 --75566#26 --75566#25 -75566#1 -75566#13 --75566#22 --75566#7 --75566#19 --75566#19 -75566#9 --75566#2 --75566#7 -75566#12 -75566#9 --75566#1 --75566#21 -75566#17 --75566#4 -75566#12 --75566#21 -75566#8 --75566#18 -75566#25 -75566#21 -75566#15" departSpeed="max"  departPos="random"  type="fastCar"/>
    <trip id="13" depart="1.30" from="-75566#1" to="-75566#26" via="--75566#14 -75566#18 --75566#15 --75566#26 -75566#16 -75566#24 --75566#22 -75566#2 --75566#6 --75566#2 -75566#19 -75566#8 --75566#4 --75566#8 --75566#16 --75566#11 --75566#20 -75566#23 -75566#4 --75566#21 --75566#13 --75566#17 --75566#11 -75566#21 -75566#3 -75566#18 -75566#18 -75566#4 -75566#24 -75566#25 --75566#13 -75566#22 --75566#3 -75566#13 -75566#24 -75566#26 -75566#10 -75566#23 -75566#18 --75566#13 --75566#22 --75566#2 -75566#4 --75566#12 -75566#23 -75566#20 -75566#9 --75566#8 --75566#26 --75566#5" departSpeed="max"  departPos="random"  type="fastCar"/>
    <trip id="14" depart="1.40" from="--75566#26" to="-75566#26" via="-75566#19 -75566#8 -75566#19 --75566#23 --75566#14 --75566#2 --75566#25 --75566#4 --75566#11 -75566#10 -75566#21 --75566#0 --75566#12 --75566#17 --75566#20 -75566#7 -75566#11 --75566#4 -75566#17 --75566#3 -75566#8 -75566#19 --75566#24 -75566#15 --75566#11 -75566#24 --75566#20 --75566#24 --75566#6 -75566#20 --75566#0 --75566#10 -75566#7 --75566#20 --75566#18 -75566#18 -75566#11 -75566#22 -75566#17 --75566#22 -75566#8 -75566#13 --75566#6 --75566#11 -75566#13 --75566#2 --75566#0 -75566#4 --75566#15 -75566#11" departSpeed="max"  departPos="random"  type="fastCar"/>
    <trip id="15" depart="1.50" from="--75566#25" to="-75566#26" via="--75566#20 -75566#24 --75566#17 -75566#13 --75566#26 --75566#15 --75566#10 --75566#7 --75566#2 -75566#3 -75566#15 --75566#23 --75566#3 --75566#9 -75566#1 --75566#24 --75566#7 -75566#6 -75566#3 -75566#10 --75566#6 --75566#2 --75566#21 -75566#4 --75566#10 --75566#11 -75566#4 -75566#20 --75566#25 --75566#4 --75566#4 -75566#20 --75566#23 -75566#25 -75566#16 -75566#15 --75566#11 -75566#7 -75566#7 --75566#2 -75566#12 -75566#0 --75566#6 --75566#8 --75566#0 --75566#2 -75566#7 --75566#23 -75566#0 -75566#3" departSpeed="max"  departPos="random"  type="fastCar"/>
    <trip id="16" depart="1.60" from="--75566#17" to="--75566#0" via="-75566#19 -75566#20 -75566#1 --75566#4 --75566#11 --75566#0 --75566#26 -75566#26 --75566#0 --75566#9 --75566#26 -75566#16 --75566#3 -75566#8 -75566#4 --75566#18 --75566#6 -75566#18 -75566#13 -75566#0 --75566#20 -75566#0 -75566#8 --75566#13 -75566#21 --75566#26 --75566#16 -75566#19 -75566#18 --75566#9 --75566#18 --75566#20 --75566#25 -75566#12 --75566#7 -75566#6 --75566#25 --75566#12 -75566#11 --75566#14 -75566#16 -75566#5 -75566#9 -75566#7 -75566#25 --75566#12 --75566#0 --75566#0 --75566#0 -75566#4" departSpeed="max"  departPos="random"  type="fastCar"/>
    <trip id="17" depart="1.70" from="--75566#22" to="-75566#26" via="-75566#5 -75566#5 -75566#4 -75566#0 -75566#20 -75566#9 --75566#11 --75566#0 -75566#7 --75566#18 --75566#23 -75566#25 --75566#9 --75566#5 --75566#23 --75566#12 --75566#23 -75566#1 --75566#22 --75566#19 -75566#0 --75566#23 -75566#10 --75566#2 --75566#20 --75566#7 --75566#26 -75566#21 --75566#13 -75566#14 --75566#6 --75566#9 -75566#26 -75566#25 --75566#6 --75566#3 -75566#19 -75566#25 --75566#2 --75566#19 --75566#19 --75566#8 --75566#9 --75566#13 --75566#20 -75566#8 --75566#5 --75566#18 --75566#22 -75566#9" departSpeed="max"  departPos="random"  type="fastCar"/>
    <trip id="18" depart="1.80" from="--75566#22" to="--75566#0" via="-75566#8 -75566#18 -75566#8 -75566#19 --75566#11 -75566#15 --75566#0 -75566#5 -75566#14 -75566#1 -75566#18 --75566#14 -75566#21 --75566#23 --75566#9 --75566#20 -75566#18 --75566#4 --75566#22 --75566#0 -75566#20 -75566#17 --75566#17 -75566#10 --75566#0 --75566#9 --75566#19 -75566#24 -75566#11 -75566#0 -75566#4 -75566#8 --75566#26 --75566#22 --75566#19 --75566#8 -75566#19 -75566#0 --75566#24 --75566#19 -75566#10 -75566#15 --75566#4 -75566#6 -75566#22 --75566#22 -75566#4 --75566#6 -75566#11 --75566#14" departSpeed="max"  departPos="random"  type="fastCar"/>
    <trip id="19" depart="1.90" from="-75566#21" to="-75566#26" via="--75566#19 -75566#10 -75566#13 --75566#2 -75566#12 -75566#1 --75566#23 --75566#11 -75566#23 --75566#2 --75566#18 --75566#12 --75566#21 --75566#21 -75566#14 -75566#13 -75566#26 --75566#15 -75566#3 -75566#26 -75566#18 --75566#23 --75566#17 --75566#10 -75566#22 --75566#4 -75566#3 -75566#20 --75566#24 --75566#7 --75566#4 -75566#6 -75566#3 -75566#25 --75566#7 --75566#15 -75566#11 -75566#26 --75566#14 -75566#10 --75566#19 -75566#10 --75566#9 --75566#12 -75566#1 -75566#22 --75566#5 -75566#5 -75566#23 -75566#6" departSpeed="max"  departPos="random"  type="fastCar"/>
    <trip id="20" depart="2.00" from="-75566#5" to="-75566#26" via="-75566#3 --75566#16 -75566#16 -75566#21 --75566#10 --75566#1 -75566#19 -75566#1 -75566#10 --75566#25 --75566#1 -75566#21 --75566#23 --75566#1 --75566#12 -75566#0 --75566#13 --75566#26 -75566#22 -75566#18 -75566#23 --75566#8 --75566#7 -75566#6 -75566#24 --75566#5 -75566#3 --75566#6 -75566#8 --75566#24 --75566#21 --75566#0 -75566#23 --75566#17 --75566#0 --75566#1 -75566#10 -75566#13 --75566#4 --75566#1 --75566#16 --75566#5 --75566#18 -75566#6 --75566#11 --75566#5 --75566#16 -75566#11 --75566#16 --75566#26" departSpeed="max"  departPos="random"  type="fastCar"/>
    <trip id="21" depart="2.10" from="-75566#4" to="--75566#0" via="-75566#11 -75566#3 --75566#5 -75566#12 -75566#0 --75566#23 --75566#25 --75566#20 -75566#10 --75566#0 -75566#20 -75566#14 --75566#16 --75566#5 -75566#26 --75566#4 --75566#25 -75566#24 --75566#20 --75566#8 --75566#19 -75566#5 --75566#24 -75566#5 --75566#10 -75566#21 --75566#26 --75566#1 --75566#17 --75566#18 --75566#17 -75566#12 -75566#22 -75566#10 --75566#26 --75566#18 -75566#7 --75566#6 -75566#13 -75566#21 -75566#21 -75566#20 --75566#11 --75566#20 --75566#21 -75566#21 -75566#16 -75566#23 -75566#26 -75566#20" departSpeed="max"  departPos="random"  type="fastCar"/>
    <trip id="22" depart="2.20" from="--75566#11" to="--75566#0" via="-75566#21 -75566#25 -75566#18 --75566#12 -75566#26 -75566#4 -75566#3 -75566#15 --75566#3 --75566#1 -75566#24 --75566#9 --75566#9 --75566#13 --75566#1 --75566#22 --75566#18 --75566#5 -75566#0 -75566#25 -75566#7 -75566#15 -75566#25 --75566#18 --75566#3 --75566#4 --75566#18 -75566#10 --75566#6 -75566#11 -75566#13 --75566#6 --75566#24 --75566#20 -75566#7 --75566#7 -75566#3 --75566#8 -75566#8 -75566#4 -75566#0 --75566#14 --75566#24 --75566#26 -75566#4 -75566#23 -75566#17 -75566#23 --75566#3 --75566#1" departSpeed="max"  departPos="random"  type="fastCar"/>
    <trip id="23" depart="2.30" from="--75566#5" to="-75566#26" via="--75566#25 -75566#10 --75566#19 --75566#3 -75566#3 --75566#3 -75566#2 -75566#0 -75566#4 -75566#21 --75566#24 -75566#12 -75566#24 -75566#25 -75566#11 --75566#23 --75566#14 -75566#21 -75566#12 --75566#13 --75566#16 -75566#8 -75566#0 -75566#24 --75566#2 -75566#10 --75566#10 -75566#7 --75566#16 --75566#23 -75566#16 -75566#24 --75566#12 -75566#11 --75566#14 -75566#24 -75566#12 --75566#20 --75566#10 -75566#8 --75566#7 -75566#24 --75566#1 -75566#21 -75566#7 -75566#24 -75566#5 -75566#8 --75566#11 --75566#21" departSpeed="max"  departPos="random"  type="fastCar"/>
    <trip id="24" depart="2.40" from="-75566#13" to="--75566#0" via="--75566#7 -75566#19 --75566#22 -75566#11 --75566#23 -75566#6 -75566#9 -75566#13 --75566#2 --75566#25 -75566#5 --75566#10 --75566#1 --75566#5 --75566#17 --75566#3 --75566#3 -75566#23 -75566#22 -75566#25 -75566#1 --75566#24 --75566#21 --75566#5 -75566#9 --75566#4 -75566#9 -75566#5 -75566#11 --75566#6 --75566#8 --75566#24 -75566#21 --75566#11 --75566#7 -75566#6 -75566#26 -75566#9 --75566#13 --75566#17 -75566#4 --75566#4 --75566#14 -75566#5 -75566#23 --75566#13 --75566#13 --75566#17 -75566#10 --75566#7" departSpeed="max"  departPos="random"  type="fastCar"/>
    <trip id="25" depart="2.50" from="--75566#3" to="--75566#0" via="--75566#5 -75566#7 -75566#26 -75566#9 -75566#26 -75566#9 -75566#23 --75566#20 -75566#22 --75566#0 --75566#17 -75566#14 -75566#10 -75566#14 --75566#17 --75566#3 -75566#10 --75566#9 --75566#15 -75566#24 --75566#17 --75566#9 --75566#22 -75566#2 -75566#17 --75566#12 --75566#21 --75566#12 -75566#24 -75566#25 --75566#23 --75566#6 -75566#25 -75566#12 --75566#0 -75566#21 --75566#9 --75566#21 -75566#21 --75566#2 --75566#9 -75566#3 --75566#26 -75566#3 -75566#14 --75566#13 -75566#3 -75566#25 --75566#5 --75566#1" departSpeed="max"  departPos="random"  type="fastCar"/>
    <trip id="26" depart="2.60" from="--75566#23" to="-75566#26" via="-75566#13 --75566#17 --75566#3 --75566#20 --75566#1 --75566#16 --75566#18 -75566#25 --75566#13 -75566#19 -75566#3 --75566#7 -75566#14 -75566#9 -75566#3 --75566#19 --75566#21 -75566#12 -75566#23 -75566#16 -75566#25 -75566#20 -75566#26 -75566#6 --75566#19 -75566#16 --75566#3 --75566#4 -75566#7 --75566#11 -75566#9 --75566#11 -75566#12 -75566#18 --75566#4 --75566#10 --75566#15 --75566#16 --75566#3 --75566#0 -75566#1 --75566#1 --75566#5 -75566#11 --75566#5 --75566#20 -75566#14 --75566#26 --75566#21 --75566#4" departSpeed="max"  departPos="random"  type="fastCar"/>
    <trip id="27" depart="2.70" from="-75566#6" to="--75566#0" via="-75566#2 -75566#17 --75566#18 -75566#6 -75566#17 --75566#8 -75566#22 --75566#5 -75566#1 --75566#17 -75566#15 --75566#13 --75566#22 -75566#11 -75566#17 -75566#18 --75566#26 --75566#3 -75566#18 --75566#8 --75566#22 --75566#22 --75566#15 -75566#4 --75566#16 --75566#19 --75566#7 --75566#22 --75566#2 --75566#10 --75566#9 --75566#11 -75566#3 -75566#25 --75566#12 --75566#8 -75566#14 -75566#18 -75566#23 -75566#24 --75566#1 -75566#26 -75566#17 -75566#19 --75566#5 --75566#1 --75566#16 --75566#16 -75566#18 -75566#24" departSpeed="max"  departPos="random"  type="fastCar"/>
    <trip id="28" depart="2.80" from="-75566#14" to="--75566#0" via="-75566#17 -75566#20 --75566#3 --75566#6 -75566#4 -75566#18 --75566#3 -75566#12 --75566#3 --75566#3 --75566#4 -75566#0 -75566#14 -75566#16 --75566#12 --75566#8 --75566#14 -75566#1 --75566#20 -75566#19 --75566#17 --75566#15 -75566#16 -75566#5 -75566#5 -75566#6 -75566#7 -75566#8 -75566#17 --75566#7 --75566#25 -75566#25 -75566#20 --75566#1 -75566#13 -75566#13 -75566#26 -75566#26 -75566#21 -75566#8 -75566#7 -75566#22 -75566#21 --75566#23 --75566#18 -75566#26 -75566#6 -75566#19 --75566#22 --75566#19" departSpeed="max"  departPos="random"  type="fastCar"/>
    <trip id="29" depart="2.90" from="-75566#7" to="-75566#26" via="-75566#5 -75566#16 --75566#15 --75566#26 --75566#7 -75566#14 -75566#18 --75566#20 -75566#17 --75566#7 --75566#21 -75566#12 -75566#13 -75566#19 -75566#14 -75566#26 --75566#8 -75566#1 -75566#3 -75566#3 --75566#19 --75566#12 --75566#13 --75566#12 --75566#26 -75566#21 --75566#13 -75566#20 --75566#23 -75566#3 --75566#18 --75566#12 -75566#10 -75566#26 -75566#26 -75566#11 -75566#3 -75566#5 --75566#7 -75566#18 -75566#21 -75566#17 -75566#26 -75566#17 -75566#11 --75566#4 --75566#22 --75566#1 -75566#9 --75566#0" departSpeed="max"  departPos="random"  type="fastCar"/>
    <trip id="30" depart="3.00" from="--75566#12" to="-75566#26" via="--75566#23 --75566#18 --75566#24 --75566#22 --75566#18 -75566#13 --75566#8 -75566#0 -75566#19 -75566#18 -75566#22 -75566#16 --75566#26 -75566#21 --75566#4 -75566#20 --75566#5 -75566#16 --75566#6 -75566#7 -75566#13 -75566#13 --75566#8 -75566#14 -75566#16 --75566#7 --75566#19 -75566#13 -75566#11 --75566#15 -75566#5 --75566#19 --75566#15 --75566#12 -75566#25 -75566#24 --75566#20 --75566#8 -75566#8 -75566#7 --75566#4 --75566#5 -75566#14 --75566#0 --75566#23 -75566#9 -75566#10 -75566#9 -75566#13 -75566#18" departSpeed="max"  departPos="random"  type="fastCar"/>
    <trip id="31" depart="3.10" from="--75566#6" to="--75566#0" via="-75566#4 -75566#25 -75566#2 -75566#16 -75566#1 --75566#10 --75566#13 --75566#5 -75566#25 --75566#18 --75566#3 -75566#3 --75566#16 --75566#8 --75566#5 --75566#9 -75566#11 --75566#24 -75566#0 -75566#23 --75566#5 -75566#10 --75566#25 -75566#5 --75566#19 -75566#17 -75566#2 -75566#12 --75566#8 --75566#15 -75566#21 -75566#16 -75566#20 -75566#16 --75566#16 -75566#3 -75566#25 -75566#17 --75566#19 -75566#11 -75566#2 -75566#19 --75566#17 --75566#16 -75566#20 --75566#9 -75566#24 --75566#25 --75566#15 --75566#7" departSpeed="max"  departPos="random"  type="fastCar"/>
    <trip id="32" depart="3.20" from="--75566#17" to="-75566#26" via="--75566#23 -75566#22 -75566#9 --75566#3 -75566#9 -75566#25 -75566#1 -75566#3 -75566#3 --75566#26 -75566#14 --75566#13 --75566#16 -75566#26 -75566#21 -75566#16 --75566#9 -75566#5 --75566#6 -75566#26 --75566#18 --75566#19 --75566#5 --75566#23 --75566#19 --75566#26 --75566#13 -75566#23 -75566#8 --75566#19 --75566#13 --75566#25 --75566#20 --75566#11 --75566#24 -75566#12 --75566#24 --75566#21 -75566#0 --75566#11 -75566#20 --75566#7 --75566#11 --75566#14 --75566#12 --75566#1 --75566#19 -75566#13 --75566#16 -75566#7" departSpeed="max"  departPos="random"  type="fastCar"/>
    <trip id="33" depart="3.30" from="-75566#10" to="-75566#26" via="-75566#11 -75566#5 -75566#15 --75566#13 -75566#1 -75566#7 --75566#10 -75566#26 --75566#1 --75566#17 -75566#25 -75566#6 -75566#20 -75566#25 -75566#17 -75566#12 --75566#21 --75566#6 -75566#19 -75566#4 --75566#0 -75566#7 -75566#14 --75566#9 --75566#11 --75566#15 -75566#10 -75566#8 -75566#0 -75566#14 -75566#24 -75566#19 -75566#4 -75566#14 -75566#18 --75566#12 --75566#7 --75566#23 -75566#20 --75566#14 --75566#16 -75566#26 --75566#22 -75566#14 --75566#24 -75566#10 -75566#15 --75566#8 -75566#21 -75566#26" departSpeed="max"  departPos="random"  type="fastCar"/>
    <trip id="34" depart="3.40" from="--75566#24" to="--75566#0" via="-75566#0 --75566#24 --75566#2 -75566#1 --75566#23 -75566#22 --75566#8 -75566#8 --75566#10 -75566#2 -75566#0 -75566#9 -75566#23 --75566#5 --75566#13 -75566#10 --75566#10 -75566#9 --75566#25 --75566#22 -75566#14 --75566#23 --75566#20 -75566#0 --75566#13 --75566#2 --75566#9 -75566#10 --75566#12 --75566#17 --75566#9 --75566#5 -75566#8 --75566#20 --75566#22 -75566#4 --75566#24 -75566#13 --75566#0 -75566#7 --75566#5 -75566#1 -75566#3 -75566#4 --75566#17 -75566#16 -75566#23 --75566#13 --75566#2 --75566#17" departSpeed="max"  departPos="random"  type="fastCar"/>
    <trip id="35" depart="3.50" from="-75566#16" to="-75566#26" via="-75566#6 -75566#15 -75566#3 -75566#16 --75566#22 --75566#0 -75566#13 --75566#23 -75566#23 --75566#22 --75566#0 -75566#16 --75566#2 --75566#22 --75566#9 --75566#10 -75566#12 --75566#21 --75566#0 --75566#11 -75566#11 --75566#11 -75566#12 --75566#0 --75566#4 --75566#24 -75566#17 -75566#8 --75566#8 -75566#20 -75566#18 --75566#16 --75566#13 -75566#9 -75566#21 -75566#11 -75566#22 --75566#15 --75566#15 --75566#17 --75566#24 -75566#4 --75566#5 --75566#23 -75566#11 --75566#23 -75566#4 --75566#23 --75566#10 --75566#1" departSpeed="max"  departPos="random"  type="fastCar"/>
    <trip id="36" depart="3.60" from="-75566#4" to="-75566#26" via="--75566#19 -75566#21 --75566#13 -75566#5 --75566#2 -75566#19 -75566#19 -75566#13 -75566#14 -75566#26 -75566#1 -75566#25 --75566#7 -75566#15 --75566#10 -75566#6 -75566#21 --75566#3 -75566#20 -75566#25 -75566#10 -75566#13 --75566#5 --75566#21 --75566#7 --75566#25 --75566#20 --75566#8 --75566#2 --75566#22 --75566#7 -75566#26 -75566#1 -75566#4 --75566#23 -75566#12 -75566#25 -75566#13 --75566#10 --75566#10 --75566#20 --75566#6 --75566#18 -75566#17 --75566#5 --75566#26 --75566#20 --75566#14 --75566#5 -75566#18" departSpeed="max"  departPos="random"  type="fastCar"/>
    <trip id="37" depart="3.70" from="--75566#1" to="-75566#26" via="--75566#22 -75566#1 --75566#25 --75566#5 -75566#2 --75566#3 -75566#19 -75566#0 -75566#4 --75566#23 -75566#18 -75566#1 -75566#1 --75566#8 -75566#8 --75566#5 -75566#23 --75566#20 -75566#3 --75566#20 -75566#1 --75566#23 -75566#19 -75566#4 -75566#3 --75566#11 --75566#10 --75566#24 -75566#3 --75566#22 --75566#18 -75566#23 --75566#24 --75566#14 -75566#23 --75566#8 --75566#7 -75566#16 -75566#9 -75566#20 --75566#11 --75566#23 -75566#4 -75566#9 -75566#20 -75566#20 --75566#14 -75566#22 -75566#11 -75566#14" departSpeed="max"  departPos="random"  type="fastCar"/>
    <trip id="38" depart="3.80" from="-75566#9" to="--75566#0" via="--75566#17 -75566#6 -75566#1 --75566#16 -75566#18 --75566#14 --75566#3 --75566#13 --75566#3 --75566#23 -75566#1 --75566#13 -75566#1 --75566#11 --75566#19 -75566#18 -75566#17 --75566#3 --75566#10 -75566#6 -75566#5 -75566#8 --75566#20 --75566#10 --75566#11 -75566#10 --75566#4 --75566#24 -75566#14 --75566#12 --75566#0 --75566#6 --75566#18 --75566#18 --75566#7 --75566#18 --75566#19 -75566#15 -75566#15 -75566#18 -75566#12 -75566#5 -75566#19 --75566#11 -75566#2 -75566#18 -75566#25 -75566#10 -75566#10 --75566#16" departSpeed="max"  departPos="random"  type="fastCar"/>
    <trip id="39" depart="3.90" from="-75566#19" to="-75566#26" via="--75566#3 --75566#17 -75566#24 -75566#23 --75566#2 --75566#13 --75566#3 --75566#2 --75566#24 -75566#21 --75566#17 --75566#5 --75566#10 -75566#16 --75566#17 --75566#2 -75566#25 --75566#21 -75566#13 --75566#24 --75566#15 --75566#10 --75566#21 --75566#7 --75566#6 -75566#4 --75566#11 --75566#4 --75566#4 --75566#4 -75566#1 --75566#5 -75566#22 --75566#3 --75566#9 -75566#22 --75566#21 --75566#4 -75566#10 --75566#7 --75566#16 --75566#25 -75566#22 -75566#8 -75566#2 --75566#19 -75566#0 --75566#0 -75566#20 --75566#14" departSpeed="max"  departPos="random"  type="fastCar"/>
    <trip id="40" depart="4.00" from="-75566#6" to="-75566#26" via="-75566#14 --75566#11 --75566#17 -75566#25 --75566#0 --75566#19 --75566#7 --75566#14 --75566#12 -75566#18 -75566#18 --75566#13 -75566#6 -75566#23 --75566#18 -75566#2 --75566#23 --75566#3 --75566#6 --75566#20 -75566#11 --75566#10 --75566#21 -75566#13 -75566#26 --75566#13 -75566#0 -75566#1 -75566#23 --75566#5 -75566#25 --75566#15 -75566#2 -75566#13 --75566#1 --75566#21 --75566#19 --75566#23 -75566#7 --75566#25 --75566#8 -75566#17 -75566#8 --75566#11 -75566#22 --75566#4 --75566#6 -75566#3 -75566#13 -75566#14" departSpeed="max"  departPos="random"  type="fastCar"/>
    <trip id="41" depart="4.10" from="-75566#15" to="--75566#0" via="--75566#13 -75566#6 --75566#6 --75566#16 -75566#2 --75566#14 -75566#13 -75566#11 -75566#2 --75566#0 --75566#25 -75566#20 --75566#14 -75566#0 --75566#22 -75566#13 --75566#20 -75566#7 -75566#4 -75566#24 --75566#17 -75566#8 -75566#9 --75566#0 -75566#16 -75566#5 -75566#18 --75566#19 -75566#13 --75566#0 --75566#20 --75566#8 --75566#10 -75566#18 -75566#9 -75566#23 --75566#8 --75566#5 -75566#13 --75566#5 -75566#21 -75566#18 --75566#12 --75566#16 -75566#0 -75566#11 -75566#19 --75566#3 -75566#12 --75566#2" departSpeed="max"  departPos="random"  type="fastCar"/>
    <trip id="42" depart="4.20" from="--75566#15" to="--75566#0" via="-75566#24 -75566#18 -75566#10 -75566#9 -75566#12 --75566#14 -75566#24 -75566#7 -75566#20 --75566#13 --75566#23 -75566#10 -75566#2 -75566#6 --75566#22 --75566#17 --75566#1 --75566#23 -75566#0 -75566#23 -75566#9 -75566#21 --75566#7 --75566#25 --75566#15 --75566#9 --75566#4 -75566#9 -75566#2 --75566#20 -75566#12 -75566#19 --75566#11 -75566#18 -75566#4 --75566#20 --75566#25 --75566#6 --75566#26 -75566#13 -75566#12 --75566#8 -75566#2 --75566#5 --75566#3 --75566#20 --75566#18 -75566#1 --75566#7 -75566#24" departSpeed="max"  departPos="random"  type="fastCar"/>
    <trip id="43" depart="4.30" from="-75566#26" to="--75566#0" via="-75566#22 --75566#4 -75566#14 -75566#20 -75566#13 -75566#5 -75566#8 --75566#15 --75566#8 -75566#7 --75566#3 -75566#18 -75566#12 -75566#22 --75566#22 --75566#23 -75566#10 -75566#4 -75566#10 --75566#5 --75566#16 --75566#12 -75566#6 -75566#23 --75566#13 --75566#13 --75566#6 -75566#4 --75566#12 --75566#2 -75566#13 -75566#21 -75566#2 -75566#22 --75566#5 -75566#4 --75566#10 --75566#12 -75566#2 -75566#12 --75566#6 --75566#10 --75566#25 -75566#13 --75566#18 -75566#20 -75566#2 --75566#10 --75566#18 -75566#2" departSpeed="max"  departPos="random"  type="fastCar"/>
    <trip id="44" depart="4.40" from="--75566#26" to="--75566#0" via="-75566#11 --75566#10 -75566#10 -75566#10 --75566#3 --75566#22 -75566#12 --75566#0 -75566#22 -75566#11 --75566#11 --75566#3 -75566#24 --75566#16 -75566#11 --75566#26 -75566#5 -75566#15 --75566#2 --75566#14 -75566#12 --75566#23 --75566#15 -75566#9 --75566#3 -75566#14 --75566#23 -75566#9 -75566#16 -75566#20 --75566#2 --75566#17 --75566#18 -75566#1 -75566#24 -75566#1 -75566#13 -75566#7 -75566#1 -75566#26 -75566#2 -75566#1 --75566#10 -75566#11 -75566#18 --75566#11 --75566#12 -75566#1 --75566#20 --75566#10" departSpeed="max"  departPos="random"  type="fastCar"/>
    <trip id="45" depart="4.50" from="-75566#5" to="-75566#26" via="-75566#18 -75566#13 --75566#12 -75566#15 --75566#23 --75566#15 --75566#12 -75566#6 -75566#25 --75566#26 -75566#3 -75566#6 -75566#0 --75566#24 -75566#17 --75566#11 --75566#16 --75566#2 -75566#19 --75566#9 -75566#4 -75566#3 -75566#21 -75566#1 -75566#23 -75566#14 --75566#26 --75566#14 -75566#23 -75566#6 --75566#4 --75566#18 --75566#9 --75566#26 -75566#16 -75566#1 --75566#4 -75566#17 -75566#12 -75566#25 -75566#6 -75566#13 --75566#3 --75566#20 --75566#24 -75566#12 -75566#5 --75566#26 --75566#20 --75566#0" departSpeed="max"  departPos="random"  type="fastCar"/>