<?xml version="1.0"?>
<!-- generated on 2016-12-01 14:58:01.684566 by $Id: randomTrips.py 19495 2015-12-02 12:36:28Z behrisch $
  options: -n ./topology/line.200.roads.xml <doubleminus>r ./topology/line.200.routes.xml -a ./topology/line.200.randomTrips.xml <doubleminus>begin 0 <doubleminus>end 20.00 <doubleminus>period 0.1 <doubleminus>min-distance 0 <doubleminus>fringe-factor 0 <doubleminus>intermediate 2 -l -o ./topology/line.200.trips.xml
-->
<trips>
    <trip id="0" depart="0.00" from="-188#27" to="--222" via="-190 -214#26" />
    <trip id="1" depart="0.10" from="-208" to="-204" via="--214#17 -228" />
    <trip id="2" depart="0.20" from="-230" to="--188#6" via="-194 -214#2" />
    <trip id="3" depart="0.30" from="-208" to="--188#0" via="-238 -190" />
    <trip id="4" depart="0.40" from="--206" to="-216" via="-200 --198" />
    <trip id="5" depart="0.50" from="-216" to="-186" via="--216 -230" />
    <trip id="6" depart="0.60" from="--224" to="--222" via="--224 -202" />
    <trip id="7" depart="0.70" from="-232" to="--214#22" via="--188#21 -188#27" />
    <trip id="8" depart="0.80" from="-202" to="--216" via="-188#11 --212" />
    <trip id="9" depart="0.90" from="--206" to="-214#26" via="-214#17 --214#0" />
    <trip id="10" depart="1.00" from="--204" to="-228" via="-188#26 --188#13" />
    <trip id="11" depart="1.10" from="--214#24" to="--200" via="--188#7 -214#2" />
    <trip id="12" depart="1.20" from="-214#18" to="-188#10" via="--214#0 --202" />
    <trip id="13" depart="1.30" from="-198" to="--232" via="--214#18 -224" />
    <trip id="14" depart="1.40" from="-188#7" to="-214#25" via="-218 -212" />
    <trip id="15" depart="1.50" from="--188#0" to="--214#14" via="--202 -204" />
    <trip id="16" depart="1.60" from="--214#11" to="--214#0" via="-214#19 --190" />
    <trip id="17" depart="1.70" from="-232" to="--220" via="--234 -184" />
    <trip id="18" depart="1.80" from="-188#1" to="--184" via="--220 -226" />
    <trip id="19" depart="1.90" from="-208" to="--188#0" via="--188#14 --216" />
    <trip id="20" depart="2.00" from="--212" to="-222" via="--188#8 --196" />
    <trip id="21" depart="2.10" from="--214#0" to="--214#14" via="--194 --214#20" />
    <trip id="22" depart="2.20" from="--214#5" to="-200" via="--182 -206" />
    <trip id="23" depart="2.30" from="--198" to="-214#27" via="--188#11 -188#13" />
    <trip id="24" depart="2.40" from="--214#10" to="--190" via="-234 -202" />
    <trip id="25" depart="2.50" from="--214#7" to="-210" via="--222 --188#25" />
    <trip id="26" depart="2.60" from="--188#11" to="-218" via="-214#22 -182" />
    <trip id="27" depart="2.70" from="--230" to="--214#19" via="--190 -224" />
    <trip id="28" depart="2.80" from="-188#16" to="--218" via="-222 -188#7" />
    <trip id="29" depart="2.90" from="-190" to="-188#7" via="--188#17 -188#10" />
    <trip id="30" depart="3.00" from="-188#5" to="--214#1" via="-214#11 --194" />
    <trip id="31" depart="3.10" from="--188#2" to="-214#27" via="--190 -186" />
    <trip id="32" depart="3.20" from="-218" to="-194" via="-230 -186" />
    <trip id="33" depart="3.30" from="-188#21" to="--188#4" via="-188#8 --188#26" />
    <trip id="34" depart="3.40" from="--202" to="--214#18" via="--214#12 --214#20" />
    <trip id="35" depart="3.50" from="--222" to="--188#5" via="-214#10 -214#24" />
    <trip id="36" depart="3.60" from="--184" to="--188#0" via="-182 --194" />
    <trip id="37" depart="3.70" from="--208" to="-200" via="-194 -198" />
    <trip id="38" depart="3.80" from="--214#12" to="-208" via="--214#0 -188#27" />
    <trip id="39" depart="3.90" from="--190" to="--236" via="--218 -198" />
    <trip id="40" depart="4.00" from="-214#10" to="--220" via="--220 --186" />
    <trip id="41" depart="4.10" from="-214#24" to="--202" via="-196 --188#18" />
    <trip id="42" depart="4.20" from="--198" to="-218" via="-186 --224" />
    <trip id="43" depart="4.30" from="-188#27" to="--188#24" via="--188#0 -214#9" />
    <trip id="44" depart="4.40" from="--214#0" to="-192" via="--232 --214#16" />
    <trip id="45" depart="4.50" from="-186" to="--214#7" via="--236 --230" />
    <trip id="46" depart="4.60" from="-188#10" to="-212" via="--186 -214#16" />
    <trip id="47" depart="4.70" from="--184" to="--222" via="-200 -196" />
    <trip id="48" depart="4.80" from="-188#12" to="-190" via="-238 -212" />
    <trip id="49" depart="4.90" from="--228" to="-228" via="--238 --222" />
    <trip id="50" depart="5.00" from="--214#6" to="--204" via="-188#27 -202" />
    <trip id="51" depart="5.10" from="--210" to="-186" via="-214#3 --188#0" />
    <trip id="52" depart="5.20" from="--206" to="--208" via="--238 -214#6" />
    <trip id="53" depart="5.30" from="-214#17" to="--208" via="--236 --214#18" />
    <trip id="54" depart="5.40" from="-188#27" to="-214#25" via="-222 --190" />
    <trip id="55" depart="5.50" from="--228" to="-202" via="--212 -188#21" />
    <trip id="56" depart="5.60" from="--188#0" to="-184" via="-226 --214#5" />
    <trip id="57" depart="5.70" from="-234" to="--214#21" via="--228 --188#17" />
    <trip id="58" depart="5.80" from="--210" to="--188#26" via="--222 -182" />
    <trip id="59" depart="5.90" from="--214#2" to="--226" via="-190 --210" />
    <trip id="60" depart="6.00" from="--196" to="-182" via="--214#0 -188#2" />
    <trip id="61" depart="6.10" from="-188#16" to="-192" via="-214#26 --188#11" />
    <trip id="62" depart="6.20" from="-216" to="-214#14" via="-214#2 --214#1" />
    <trip id="63" depart="6.30" from="-188#14" to="--188#1" via="-188#16 --184" />
    <trip id="64" depart="6.40" from="--182" to="--216" via="-218 -200" />
    <trip id="65" depart="6.50" from="--196" to="-184" via="-188#17 --188#10" />
    <trip id="66" depart="6.60" from="--214#0" to="--214#18" via="--188#9 --200" />
    <trip id="67" depart="6.70" from="-208" to="--188#4" via="--200 -192" />
    <trip id="68" depart="6.80" from="-186" to="--188#13" via="-186 --194" />
    <trip id="69" depart="6.90" from="-188#2" to="-196" via="--184 -224" />
    <trip id="70" depart="7.00" from="--184" to="--206" via="--186 -222" />
    <trip id="71" depart="7.10" from="-188#24" to="--226" via="-214#12 -206" />
    <trip id="72" depart="7.20" from="--200" to="--214#5" via="-188#13 --214#0" />
    <trip id="73" depart="7.30" from="--192" to="--222" via="--204 -188#9" />
    <trip id="74" depart="7.40" from="--234" to="-234" via="--230 --188#23" />
    <trip id="75" depart="7.50" from="-220" to="-188#3" via="-214#23 -194" />
    <trip id="76" depart="7.60" from="-228" to="--214#0" via="--188#7 --188#0" />
    <trip id="77" depart="7.70" from="--188#19" to="-214#25" via="--184 -214#1" />
    <trip id="78" depart="7.80" from="-208" to="--224" via="--216 -230" />
    <trip id="79" depart="7.90" from="--214#0" to="-188#14" via="-234 --206" />
    <trip id="80" depart="8.00" from="--214#11" to="-228" via="--238 --212" />
    <trip id="81" depart="8.10" from="--188#6" to="--210" via="--234 --208" />
    <trip id="82" depart="8.20" from="--222" to="--214#1" via="--206 --214#22" />
    <trip id="83" depart="8.30" from="--210" to="-230" via="-214#7 --188#3" />
    <trip id="84" depart="8.40" from="--188#25" to="-186" via="-200 -196" />
    <trip id="85" depart="8.50" from="--208" to="--226" via="--214#0 --214#19" />
    <trip id="86" depart="8.60" from="-214#9" to="--226" via="-208 -206" />
    <trip id="87" depart="8.70" from="-228" to="-206" via="-196 -196" />
    <trip id="88" depart="8.80" from="--208" to="--226" via="--224 -214#3" />
    <trip id="89" depart="8.90" from="--220" to="-188#7" via="--214#11 --224" />
    <trip id="90" depart="9.00" from="-200" to="-214#18" via="--182 --188#4" />
    <trip id="91" depart="9.10" from="-186" to="--214#24" via="-188#13 --190" />
    <trip id="92" depart="9.20" from="-188#18" to="-236" via="-228 --230" />
    <trip id="93" depart="9.30" from="--188#5" to="-192" via="--238 --212" />
    <trip id="94" depart="9.40" from="-190" to="-214#27" via="--202 --192" />
    <trip id="95" depart="9.50" from="-186" to="--208" via="--222 --232" />
    <trip id="96" depart="9.60" from="--190" to="--234" via="-188#26 --232" />
    <trip id="97" depart="9.70" from="--210" to="-218" via="--214#16 --230" />
    <trip id="98" depart="9.80" from="-226" to="-236" via="-198 -214#23" />
    <trip id="99" depart="9.90" from="--188#11" to="-192" via="-230 --182" />
    <trip id="100" depart="10.00" from="--214#13" to="--188#26" via="--218 -238" />
    <trip id="101" depart="10.10" from="-188#8" to="-194" via="--214#26 --214#16" />
    <trip id="102" depart="10.20" from="--232" to="--200" via="--214#22 --196" />
    <trip id="103" depart="10.30" from="--224" to="-208" via="--194 -202" />
    <trip id="104" depart="10.40" from="-212" to="-210" via="-232 -216" />
    <trip id="105" depart="10.50" from="-230" to="--202" via="-200 --214#0" />
    <trip id="106" depart="10.60" from="-224" to="-190" via="-214#27 --188#0" />
    <trip id="107" depart="10.70" from="-208" to="-214#2" via="-194 -188#27" />
    <trip id="108" depart="10.80" from="-208" to="--208" via="--220 --214#1" />
    <trip id="109" depart="10.90" from="--222" to="--234" via="-214#5 --214#18" />
    <trip id="110" depart="11.00" from="-214#2" to="--202" via="--202 -206" />
    <trip id="111" depart="11.10" from="--188#22" to="-216" via="-188#25 --228" />
    <trip id="112" depart="11.20" from="-206" to="--232" via="--198 -190" />
    <trip id="113" depart="11.30" from="-198" to="--188#0" via="--184 -214#27" />
    <trip id="114" depart="11.40" from="--192" to="-192" via="--212 --200" />
    <trip id="115" depart="11.50" from="-208" to="-218" via="-198 -216" />
    <trip id="116" depart="11.60" from="-188#24" to="-188#16" via="-188#22 -214#26" />
    <trip id="117" depart="11.70" from="-204" to="-188#14" via="-188#14 --202" />
    <trip id="118" depart="11.80" from="-214#23" to="-196" via="--232 -188#26" />
    <trip id="119" depart="11.90" from="-188#20" to="--206" via="-234 --188#5" />
    <trip id="120" depart="12.00" from="-214#1" to="-232" via="--224 --188#12" />
    <trip id="121" depart="12.10" from="-222" to="-214#13" via="--214#21 --188#18" />
    <trip id="122" depart="12.20" from="--202" to="-188#26" via="--198 -206" />
    <trip id="123" depart="12.30" from="-190" to="-238" via="-188#27 --214#22" />
    <trip id="124" depart="12.40" from="--220" to="-232" via="-238 --202" />
    <trip id="125" depart="12.50" from="--214#22" to="--214#24" via="--214#0 -234" />
    <trip id="126" depart="12.60" from="-228" to="-214#10" via="-204 --198" />
    <trip id="127" depart="12.70" from="-214#5" to="--222" via="--214#6 -184" />
    <trip id="128" depart="12.80" from="--214#23" to="-182" via="-234 -214#5" />
    <trip id="129" depart="12.90" from="--214#3" to="-188#1" via="-232 --214#0" />
    <trip id="130" depart="13.00" from="-214#8" to="--184" via="--232 --192" />
    <trip id="131" depart="13.10" from="--214#2" to="--192" via="--232 --190" />
    <trip id="132" depart="13.20" from="--188#1" to="-202" via="--192 --202" />
    <trip id="133" depart="13.30" from="-214#24" to="--214#13" via="--190 -188#18" />
    <trip id="134" depart="13.40" from="-188#27" to="-210" via="-184 --222" />
    <trip id="135" depart="13.50" from="--196" to="-200" via="--182 -188#3" />
    <trip id="136" depart="13.60" from="--206" to="-238" via="--234 -194" />
    <trip id="137" depart="13.70" from="-192" to="-238" via="--188#23 -186" />
    <trip id="138" depart="13.80" from="-182" to="--206" via="--230 -188#11" />
    <trip id="139" depart="13.90" from="-188#25" to="-214#8" via="--214#20 -208" />
    <trip id="140" depart="14.00" from="--188#7" to="--214#15" via="--188#16 -230" />
    <trip id="141" depart="14.10" from="-214#7" to="-190" via="-186 --188#0" />
    <trip id="142" depart="14.20" from="--214#0" to="-184" via="-224 --216" />
    <trip id="143" depart="14.30" from="-188#2" to="--230" via="-192 -206" />
    <trip id="144" depart="14.40" from="-224" to="--214#26" via="--196 -212" />
    <trip id="145" depart="14.50" from="-188#2" to="--182" via="--188#6 -208" />
    <trip id="146" depart="14.60" from="--186" to="--222" via="-188#24 -236" />
    <trip id="147" depart="14.70" from="--182" to="-188#27" via="--232 --188#12" />
    <trip id="148" depart="14.80" from="--214#8" to="-206" via="--238 --190" />
    <trip id="149" depart="14.90" from="--214#12" to="--190" via="--188#13 -214#2" />
    <trip id="150" depart="15.00" from="--214#0" to="-188#24" via="--192 --184" />
    <trip id="151" depart="15.10" from="--222" to="--206" via="--228 --214#19" />
    <trip id="152" depart="15.20" from="-226" to="--188#15" via="--220 -216" />
    <trip id="153" depart="15.30" from="-236" to="-218" via="--194 --222" />
    <trip id="154" depart="15.40" from="--230" to="--214#7" via="--214#9 -226" />
    <trip id="155" depart="15.50" from="--188#2" to="-188#7" via="-186 -206" />
    <trip id="156" depart="15.60" from="-220" to="-188#27" via="--230 --234" />
    <trip id="157" depart="15.70" from="--188#9" to="--188#0" via="--202 --188#18" />
    <trip id="158" depart="15.80" from="-188#9" to="-194" via="-194 --214#24" />
    <trip id="159" depart="15.90" from="--234" to="--188#3" via="--190 -204" />
    <trip id="160" depart="16.00" from="-188#24" to="-184" via="--238 --222" />
    <trip id="161" depart="16.10" from="-206" to="--216" via="-188#27 -216" />
    <trip id="162" depart="16.20" from="--200" to="-214#25" via="--188#5 -196" />
    <trip id="163" depart="16.30" from="--188#11" to="-206" via="-214#2 -214#14" />
    <trip id="164" depart="16.40" from="-230" to="--188#6" via="--214#0 -188#26" />
    <trip id="165" depart="16.50" from="-212" to="-232" via="--202 -222" />
    <trip id="166" depart="16.60" from="-236" to="-182" via="--232 -214#27" />
    <trip id="167" depart="16.70" from="-236" to="-214#1" via="--188#24 -188#6" />
    <trip id="168" depart="16.80" from="--200" to="--236" via="-204 --228" />
    <trip id="169" depart="16.90" from="-204" to="-214#27" via="--188#21 --228" />
    <trip id="170" depart="17.00" from="--224" to="--206" via="-234 -188#27" />
    <trip id="171" depart="17.10" from="--210" to="--184" via="--230 --190" />
    <trip id="172" depart="17.20" from="-214#2" to="--182" via="-214#27 -188#27" />
    <trip id="173" depart="17.30" from="-214#27" to="--188#23" via="-188#27 --210" />
    <trip id="174" depart="17.40" from="-214#26" to="-188#3" via="--214#10 -204" />
    <trip id="175" depart="17.50" from="-204" to="-208" via="-216 -188#5" />
    <trip id="176" depart="17.60" from="-228" to="-208" via="-220 -214#20" />
    <trip id="177" depart="17.70" from="--198" to="-208" via="-214#25 -232" />
    <trip id="178" depart="17.80" from="-188#11" to="--210" via="--194 -208" />
    <trip id="179" depart="17.90" from="-188#1" to="--214#12" via="-190 -208" />
    <trip id="180" depart="18.00" from="--188#0" to="--188#3" via="-232 -228" />
    <trip id="181" depart="18.10" from="--214#15" to="-202" via="--196 -188#18" />
    <trip id="182" depart="18.20" from="-200" to="--186" via="--214#20 --214#19" />
    <trip id="183" depart="18.30" from="--220" to="--190" via="--184 --194" />
    <trip id="184" depart="18.40" from="--194" to="-188#5" via="--186 -214#2" />
    <trip id="185" depart="18.50" from="--230" to="-196" via="-234 -214#15" />
    <trip id="186" depart="18.60" from="--218" to="-214#11" via="-188#15 --224" />
    <trip id="187" depart="18.70" from="--186" to="--230" via="--190 --236" />
    <trip id="188" depart="18.80" from="-228" to="-202" via="-228 --228" />
    <trip id="189" depart="18.90" from="--184" to="--196" via="-230 --208" />
    <trip id="190" depart="19.00" from="-182" to="--214#8" via="-190 --220" />
    <trip id="191" depart="19.10" from="-188#24" to="-196" via="-234 -194" />
    <trip id="192" depart="19.20" from="--228" to="-218" via="--214#5 --230" />
    <trip id="193" depart="19.30" from="-236" to="--204" via="-214#24 -182" />
    <trip id="194" depart="19.40" from="--188#9" to="-224" via="--192 --232" />
    <trip id="195" depart="19.50" from="--220" to="--206" via="-214#13 -226" />
    <trip id="196" depart="19.60" from="-214#27" to="-208" via="--202 -220" />
    <trip id="197" depart="19.70" from="--214#17" to="-190" via="-188#24 --230" />
    <trip id="198" depart="19.80" from="-206" to="--208" via="-192 --196" />
    <trip id="199" depart="19.90" from="-188#27" to="-222" via="-214#13 --214#0" />
</trips>
