<?xml version="1.0" encoding="UTF-8"?>

<!-- generated on Thu Dec  1 14:58:01 2016 by SUMO duarouter Version 0.25.0D
<?xml version="1.0" encoding="UTF-8"?>

<configuration xmlns:xsi="http://www.w3.org/2001/XMLSchema-instance" xsi:noNamespaceSchemaLocation="http://sumo.dlr.de/xsd/duarouterConfiguration.xsd">

    <input>
        <net-file value="./topology/line.200.roads.xml"/>
        <additional-files value="./topology/line.200.randomTrips.xml"/>
        <trip-files value="./topology/line.200.trips.xml"/>
    </input>

    <output>
        <output-file value="./topology/line.200.routes.xml"/>
    </output>

    <processing>
        <ignore-errors value="true"/>
    </processing>

    <time>
        <begin value="0.0"/>
        <end value="20.0"/>
    </time>

    <report>
        <no-warnings value="true"/>
        <no-step-log value="true"/>
    </report>

</configuration>
-->

<routes xmlns:xsi="http://www.w3.org/2001/XMLSchema-instance" xsi:noNamespaceSchemaLocation="http://sumo.dlr.de/xsd/routes_file.xsd">

    <vehicle id="pos_00" depart="00.10">
        <route edges="-188#1 -188#2 --182 -214#25 -190 -188#2 -188#3 -188#4 -188#5 -188#6 -188#7 -188#8 -210 --214#18 --214#17 -208 -188#11 -188#12 -198 --214#14 --214#13 --214#12"/>
    </vehicle>

    <vehicle id="pos_01" depart="00.20">
        <route edges="--190 --214#25 --214#24 --214#23 --214#22 --214#21 --214#20 --214#19 --214#18 --214#17 --214#16 --214#15 --214#14 -206 -188#14 -188#15 -188#16 -188#17 -188#18 --218 -214#9 -214#10 --220 --188#16 --188#15 --188#14 --188#13 -198 --214#14 -206 -188#14 -188#15 -188#16 -188#17 -188#18 -188#19 -188#20 -188#21 -188#22 -188#23 -188#24 -188#25 --236"/>
    </vehicle>

    <vehicle id="pos_02" depart="00.30">
        <route edges="--182 --214#24 --214#23 --214#22 --214#21 --214#20 --214#19 --214#18 --214#17 --214#16 --214#15 --214#14 -206 -188#14 -188#15 -188#16 -188#17 -188#18 -188#19 -188#20 -188#21 --232 -214#6 -214#7 -214#8 -214#9 -214#10 --220 --188#16 --188#15 --188#14 --188#13 --188#12 --204 --214#15 --214#14 -206 -188#14 -188#15 -188#16 -188#17 -188#18 -188#19 -188#20 -188#21 -188#22 -188#23 -188#24 -188#25 -188#26 -188#27"/>
    </vehicle>

    <vehicle id="pos_03" depart="00.40">
        <route edges="--192 --214#23 --214#22 --214#21 -202 -188#7 -188#8 -188#9 -188#10 -188#11 --204 -214#16 -214#17 -214#18 --210 -188#9 -188#10 -188#11 -188#12 -188#13 -188#14 -188#15 --222"/>
    </vehicle>

    <vehicle id="pos_04" depart="00.50">
        <route edges="-186 --214#22 --214#21 -202 --188#6 --194 --214#21 --214#20 --214#19 --214#18 --214#17 --214#16 --214#15 --214#14 -206 --188#13"/>
    </vehicle>

    <vehicle id="pos_05" depart="00.60">
        <route edges="--194 -214#22 --186 -188#5 -188#6 -188#7 -188#8 -188#9 -188#10 -188#11 -188#12 -188#13 -188#14 -188#15 -188#16 -188#17 -188#18 -188#19 -188#20 -188#21 -188#22 -188#23 -188#24 -188#25 --236 -214#2 -214#3 -214#4 -214#5 -214#6 -214#7 -214#8 -214#9 -214#10 -214#11 -214#12 -214#13 -214#14 -214#15 -214#16 -214#17 -214#18 -214#19 -214#20 -214#21 -214#22 --186 -188#5"/>
    </vehicle>

    <vehicle id="pos_06" depart="00.70">
        <route edges="--188#6 --194 --214#21 --214#20 --214#19 --214#18 --214#17 --214#16 --214#15 --214#14 -206 -188#14 -188#15 -188#16 -188#17 -188#18 -188#19 -188#20 -188#21 -188#22 -188#23 --234 -214#4 -214#5 -214#6 -214#7 -214#8 -214#9 -214#10 --220 --188#16 --188#15 --188#14 --188#13 --188#12 --188#11 --208 -214#17 -214#18 --210"/>
    </vehicle>

    <vehicle id="pos_07" depart="00.80">
        <route edges="--196 --214#19 --214#18 --214#17 --214#16 --214#15 --214#14 --214#13 --214#12 --214#11 --214#10 --214#9 --214#8 --214#7 --214#6 --214#5 --214#4 --214#3 --214#2 --214#1 --214#0 --188#26 --188#25 --188#24 --188#23 --188#22 --188#21 --188#20 --188#19 --188#18 --188#17 --188#16 --188#15 --188#14 --206 -214#14 -214#15 -214#16 -214#17 -214#18 -214#19 -214#20 -214#21 -214#22 -214#23 -214#24 -214#25 -190 -188#2 -188#3 --192 -214#24 -182"/>
    </vehicle>

    <vehicle id="pos_08" depart="00.90">
        <route edges="-188#9 --200 -214#18 -214#19 -214#20 -214#21 -194"/>
    </vehicle>

    <vehicle id="pos_09" depart="01.00">
        <route edges="--200 -214#18 --210 --188#8 --188#7 --188#6 --188#5 -186 --214#22 --214#21 --214#20 -196 --188#7 --202 -214#21 -214#22 -214#23 -214#24 -214#25"/>
    </vehicle>

    <vehicle id="pos_10" depart="01.10">
        <route edges="-188#11 --204 -214#16 -214#17 -214#18 --210 --188#8 --188#7 --188#6 --194 --214#21 --214#20 --214#19 --214#18 --214#17 -208 --188#10 --200 -214#18 --210"/>
    </vehicle>

    <vehicle id="pos_11" depart="01.20">
        <route edges="-188#12 -188#13 -188#14 -188#15 -188#16 -220 --214#10 --214#9 --214#8 --214#7 --214#6 --214#5 -238 -188#23 -188#24 -216 --214#2 --214#1 -212 --188#26 --188#25 --188#24 --188#23 --188#22 --188#21 --188#20 --188#19 --188#18 --188#17 --188#16 --188#15 --188#14 --206 -214#14 -214#15 -214#16 -214#17 -214#18 -214#19 -214#20 -214#21 -214#22 -214#23 -214#24 -214#25 -190"/>
    </vehicle>

    <vehicle id="pos_12" depart="01.30">
        <route edges="-198 -214#15 -214#16 -214#17 -214#18 -214#19 -214#20 -214#21 -214#22 -214#23 -214#24 -214#25 -214#26 --184 -188#1 --190 -214#26 -214#27 -188#1 --190 -214#26 --184 --188#0"/>
    </vehicle>

    <vehicle id="pos_13" depart="01.40">
        <route edges="--206 --214#13 --214#12 --214#11 --214#10 -226 -188#18 -188#19 -188#20 -188#21 -188#22 -188#23 --234 -214#4 -214#5 -214#6 -214#7 -214#8 -214#9 -214#10 -214#11 -214#12 -214#13 -214#14 -214#15 -214#16 -214#17 -214#18 -214#19 -214#20 -214#21 -194 -188#6 -188#7 -188#8 -188#9 -188#10 -188#11 -188#12 -188#13 -188#14 -188#15 -188#16 -220 --214#10 --214#9 --214#8 --214#7 --214#6 --214#5 -238"/>
    </vehicle>

    <vehicle id="pos_14" depart="01.50">
        <route edges="--228 --214#12 --214#11 --214#10 -226 -188#18 -188#19 -188#20 -188#21 -188#22 -188#23 -188#24 -188#25 -188#26 --212 -214#1 -214#2 -214#3 -214#4 -214#5 -214#6 --224 -188#21 --232 -214#6 -214#7 -214#8 -214#9 -214#10 -214#11 -214#12 -214#13 -214#14 -214#15 -214#16 -214#17 -214#18 -214#19 -214#20 -202"/>
    </vehicle>

    <vehicle id="pos_15" depart="01.60">
        <route edges="--222 -214#12 -214#13 -206 -188#14 --228 -214#13 -214#14 -214#15 -214#16 -214#17 -214#18 --210 --188#8 --196 --214#19 --214#18 -200 -188#10 -188#11 -188#12 -188#13 --206"/>
    </vehicle>

    <vehicle id="pos_16" depart="01.70">
        <route edges="-220 -214#11 -214#12 -214#13 -214#14 -214#15 -214#16 -214#17 -214#18 -214#19 -214#20 -214#21 -214#22 -214#23 -192 -188#4 -186 --214#22 -194 --188#5 --188#4 --192 -214#24 -182 -188#3"/>
    </vehicle>
    
    <vehicle id="pos_17" depart="01.80">
        <route edges="-188#18 --218 -214#9 -214#10 -214#11 -214#12 -228 -188#15 -188#16 -188#17 -188#18 -188#19 --230 --214#7 --214#6 --214#5 --214#4 --214#3 --214#2 -236"/>
    </vehicle>

    <vehicle id="pos_18" depart="01.90">
        <route edges="--218 -214#9 -214#10 -214#11 -214#12 -228 -188#15 -188#16 -220 --214#10 --214#9 --214#8 --214#7 --224 --188#20 --188#19 --188#18 --226 -214#10 -214#11"/>
    </vehicle>

    <vehicle id="pos_19" depart="02.00">
        <route edges="-188#20 -224 --214#6 --214#5 --214#4 -234 --188#23 --188#22 --188#21 --188#20 --188#19 --188#18 --188#17 --188#16 --188#15 --188#14 --188#13 --188#12 --188#11 --188#10 --188#9 --188#8 --188#7 --188#6 --188#5 -186 --214#22 --214#21 -202 -188#7 -188#8 -188#9 -188#10 -188#11 -188#12 -188#13 --206"/>
    </vehicle>

    <vehicle id="pos_20" depart="02.10">
        <route edges="-224 -214#7 -214#8 -214#9 -214#10 -214#11 -214#12 -214#13 -214#14 -214#15 -214#16 -214#17 -214#18 -214#19 -214#20 -214#21 -214#22 -214#23 -214#24 -214#25 -214#26 -214#27 -188#1 --190 -214#26 --184 --188#0 --214#26 -190"/>
    </vehicle>

    <vehicle id="pos_21" depart="02.20">
        <route edges="--232 -214#6 -214#7 -214#8 -214#9 -214#10 --220 --188#16 --188#15 --188#14 --188#13 --188#12 --188#11 --188#10 --188#9 --188#8 --188#7 --188#6 --188#5 -186 --214#22 --214#21 -202 -188#7 --196 --214#19 --210 -188#9 --200"/>
    </vehicle>

    <vehicle id="pos_22" depart="02.30">
        <route edges="--188#22 --232 --214#5 -238 -188#23 -188#24 -188#25 --236 -214#2 --216 --188#24 --188#23 --188#22 --188#21 --188#20 --188#19 --188#18 --188#17 --188#16 --188#15 --228 --214#12 --214#11 --214#10 -226 -188#18 -188#19 -188#20 -188#21 -188#22 -188#23 -188#24 -216"/>
    </vehicle>

    <vehicle id="pos_23" depart="02.40">
        <route edges="--234 -214#4 -214#5 -214#6 --224 --188#20 --230 --214#7 --214#6 --214#5 --214#4 -234 --188#23 --238 --214#4 -234"/>
    </vehicle>

    <vehicle id="pos_24" depart="02.50">
        <route edges="-188#25 --236 -214#2 --216 --188#24 --188#23 --188#22 --188#21 --188#20 --188#19 --188#18 --188#17 --188#16 --188#15 --188#14 --188#13 --188#12 --188#11 --188#10 --188#9 --188#8 --188#7 --202 --214#20 --214#19 --214#18 --214#17 -208 -188#11 -188#12 -188#13 -188#14 -188#15 -188#16 -188#17 -188#18 -188#19 --230 -214#8"/>
    </vehicle>
</routes>