<?xml version="1.0" encoding="UTF-8"?>

<!-- generated on Thu Dec  1 14:58:01 2016 by SUMO polyconvert Version 0.25.0D
<?xml version="1.0" encoding="UTF-8"?>

<configuration xmlns:xsi="http://www.w3.org/2001/XMLSchema-instance" xsi:noNamespaceSchemaLocation="http://sumo.dlr.de/xsd/polyconvertConfiguration.xsd">

    <input>
        <net-file value="./topology/line.200.roads.xml"/>
        <osm-files value="./topology/line.200.clean.osm"/>
        <type-file value="typemap.xml"/>
    </input>

    <output>
        <output-file value="./topology/line.200.poly.xml"/>
    </output>

    <processing>
        <ignore-errors value="true"/>
        <poi-layer-offset value="5"/>
    </processing>

</configuration>
-->

<additional xmlns:xsi="http://www.w3.org/2001/XMLSchema-instance" xsi:noNamespaceSchemaLocation="http://sumo.dlr.de/xsd/additional_file.xsd">
    <location netOffset="-828531.96,7936.47" convBoundary="-0.00,-0.00,1487.20,10346.42" origBoundary="-0.048878,-0.071707,-0.035533,0.021774" projParameter="+proj=utm +zone=30 +ellps=WGS84 +datum=WGS84 +units=m +no_defs"/>

    <poly id="-182" type="unknown" color="51,128,255" fill="0" layer="-1.00" shape="8.93,9237.28 1486.36,9235.90"/>
    <poly id="-184" type="unknown" color="51,128,255" fill="0" layer="-1.00" shape="1486.64,9974.09 9.61,9975.56"/>
    <poly id="-186" type="unknown" color="51,128,255" fill="0" layer="-1.00" shape="1485.66,8497.70 8.24,8499.08"/>
    <poly id="-188" type="unknown" color="51,128,255" fill="0" layer="-1.00" shape="9.95,10346.42 1487.20,10344.23 1486.64,9974.09 1486.50,9587.24 1486.36,9235.90 1486.00,8862.36 1485.66,8497.70 1485.29,8112.14 1484.92,7757.94 1484.36,7389.89 1483.80,7019.75 1483.64,6632.89 1483.50,6281.55 1483.14,5908.02 1482.78,5543.35 1482.40,5157.80 1481.94,4804.26 1481.37,4436.21 1480.80,4066.07 1480.63,3679.21 1480.48,3327.87 1480.11,2954.34 1479.74,2589.67 1479.35,2204.12 1478.97,1849.92 1478.40,1481.86 1477.81,1111.72 1477.64,724.87 1477.48,373.53 1477.10,-0.00"/>
    <poly id="-190" type="unknown" color="51,128,255" fill="0" layer="-1.00" shape="9.26,9589.43 1486.50,9587.24"/>
    <poly id="-192" type="unknown" color="51,128,255" fill="0" layer="-1.00" shape="8.58,8864.85 1486.00,8862.36"/>
    <poly id="-194" type="unknown" color="51,128,255" fill="0" layer="-1.00" shape="7.88,8113.72 1485.29,8112.14"/>
    <poly id="-196" type="unknown" color="51,128,255" fill="0" layer="-1.00" shape="7.20,7392.12 1484.36,7389.89"/>
    <poly id="-198" type="unknown" color="51,128,255" fill="0" layer="-1.00" shape="1482.78,5543.35 5.44,5544.77"/>
    <poly id="-200" type="unknown" color="51,128,255" fill="0" layer="-1.00" shape="6.48,6635.01 1483.64,6632.89"/>
    <poly id="-202" type="unknown" color="51,128,255" fill="0" layer="-1.00" shape="7.55,7760.89 1484.92,7757.94"/>
    <poly id="-204" type="unknown" color="51,128,255" fill="0" layer="-1.00" shape="5.79,5910.07 1483.14,5908.02"/>
    <poly id="-206" type="unknown" color="51,128,255" fill="0" layer="-1.00" shape="5.07,5161.57 1482.40,5157.80"/>
    <poly id="-208" type="unknown" color="51,128,255" fill="0" layer="-1.00" shape="6.15,6282.97 1483.50,6281.55"/>
    <poly id="-210" type="unknown" color="51,128,255" fill="0" layer="-1.00" shape="1483.80,7019.75 6.85,7021.25"/>
    <poly id="-212" type="unknown" color="51,128,255" fill="0" layer="-1.00" shape="0.37,375.02 1477.48,373.53"/>
    <poly id="-214" type="unknown" color="51,128,255" fill="0" layer="-1.00" shape="-0.00,1.61 0.37,375.02 0.72,727.28 1.11,1113.30 1.48,1484.15 1.84,1852.94 2.19,2205.61 2.57,2591.13 2.93,2955.75 3.30,3329.33 3.64,3682.41 4.02,4067.61 4.38,4439.13 4.73,4806.58 5.07,5161.57 5.44,5544.77 5.79,5910.07 6.15,6282.97 6.48,6635.01 6.85,7021.25 7.20,7392.12 7.55,7760.89 7.88,8113.72 8.24,8499.08 8.58,8864.85 8.93,9237.28 9.26,9589.43 9.61,9975.56 9.95,10346.42"/>
    <poly id="-216" type="unknown" color="51,128,255" fill="0" layer="-1.00" shape="1477.81,1111.72 1.11,1113.30"/>
    <poly id="-218" type="unknown" color="51,128,255" fill="0" layer="-1.00" shape="3.30,3329.33 1480.48,3327.87"/>
    <poly id="-220" type="unknown" color="51,128,255" fill="0" layer="-1.00" shape="1480.80,4066.07 4.02,4067.61"/>
    <poly id="-222" type="unknown" color="51,128,255" fill="0" layer="-1.00" shape="4.38,4439.13 1481.37,4436.21"/>
    <poly id="-224" type="unknown" color="51,128,255" fill="0" layer="-1.00" shape="1479.74,2589.67 2.57,2591.13"/>
    <poly id="-226" type="unknown" color="51,128,255" fill="0" layer="-1.00" shape="3.64,3682.41 1480.63,3679.21"/>
    <poly id="-228" type="unknown" color="51,128,255" fill="0" layer="-1.00" shape="4.73,4806.58 1481.94,4804.26"/>
    <poly id="-230" type="unknown" color="51,128,255" fill="0" layer="-1.00" shape="2.93,2955.75 1480.11,2954.34"/>
    <poly id="-232" type="unknown" color="51,128,255" fill="0" layer="-1.00" shape="2.19,2205.61 1479.35,2204.12"/>
    <poly id="-234" type="unknown" color="51,128,255" fill="0" layer="-1.00" shape="1.48,1484.15 1478.40,1481.86"/>
    <poly id="-236" type="unknown" color="51,128,255" fill="0" layer="-1.00" shape="0.72,727.28 1477.64,724.87"/>
    <poly id="-238" type="unknown" color="51,128,255" fill="0" layer="-1.00" shape="1.84,1852.94 1478.97,1849.92"/>
    <poly id="-240" type="unknown" color="51,128,255" fill="0" layer="-1.00" shape="-0.00,1.61 1477.10,-0.00"/>
</additional>
