<?xml version="1.0" encoding="UTF-8"?>

<!-- generated on Fri Mar 17 17:55:50 2017 by SUMO netconvert Version 0.25.0D
<?xml version="1.0" encoding="UTF-8"?>

<configuration xmlns:xsi="http://www.w3.org/2001/XMLSchema-instance" xsi:noNamespaceSchemaLocation="http://sumo.dlr.de/xsd/netconvertConfiguration.xsd">

    <input>
        <type-files value="/home/felipe/Simulation/sumo-0.25.0/data/typemap/osmNetconvert.typ.xml"/>
        <osm-files value="ottawa.osm"/>
    </input>

    <output>
        <output-file value="ottawa.net.xml"/>
    </output>

    <projection>
        <proj.utm value="true"/>
    </projection>

    <tls_building>
        <tls.guess value="false"/>
        <tls.join value="true"/>
        <tls.guess-signals value="true"/>
    </tls_building>

    <edge_removal>
        <remove-edges.by-vclass value="truck,tram,rail_urban,rail,rail_electric,hov,taxi,bus,delivery,motorcycle,bicycle,pedestrian"/>
        <remove-edges.isolated value="true"/>
    </edge_removal>

    <processing>
        <no-turnarounds value="true"/>
        <no-turnarounds.tls value="true"/>
        <geometry.remove value="true"/>
    </processing>

    <report>
        <verbose value="true"/>
    </report>

</configuration>
-->

<net version="0.25" xmlns:xsi="http://www.w3.org/2001/XMLSchema-instance" xsi:noNamespaceSchemaLocation="http://sumo.dlr.de/xsd/net_file.xsd">

    <location netOffset="-446157.81,-5029719.22" convBoundary="0.00,0.00,1489.13,1907.81" origBoundary="-75.688336,45.418985,-75.669185,45.436129" projParameter="+proj=utm +zone=18 +ellps=WGS84 +datum=WGS84 +units=m +no_defs"/>

    <type id="highway.bridleway" priority="1" numLanes="1" speed="2.78" allow="pedestrian" oneway="1" width="2.00"/>
    <type id="highway.bus_guideway" priority="1" numLanes="1" speed="8.33" allow="bus" oneway="1"/>
    <type id="highway.cycleway" priority="1" numLanes="1" speed="5.56" allow="bicycle" oneway="0" width="1.00"/>
    <type id="highway.footway" priority="1" numLanes="1" speed="8.33" allow="pedestrian" oneway="1" width="2.00"/>
    <type id="highway.ford" priority="1" numLanes="1" speed="2.78" allow="army" oneway="0"/>
    <type id="highway.living_street" priority="3" numLanes="1" speed="2.78" disallow="tram rail_urban rail rail_electric ship" oneway="0"/>
    <type id="highway.motorway" priority="13" numLanes="2" speed="44.44" allow="private emergency authority army vip passenger hov taxi bus coach delivery truck trailer motorcycle evehicle custom1 custom2" oneway="1"/>
    <type id="highway.motorway_link" priority="12" numLanes="1" speed="22.22" allow="private emergency authority army vip passenger hov taxi bus coach delivery truck trailer motorcycle evehicle custom1 custom2" oneway="1"/>
    <type id="highway.path" priority="1" numLanes="1" speed="2.78" allow="bicycle pedestrian" oneway="1" width="2.00"/>
    <type id="highway.pedestrian" priority="1" numLanes="1" speed="8.33" allow="pedestrian" oneway="1" width="2.00"/>
    <type id="highway.primary" priority="9" numLanes="2" speed="27.78" disallow="tram rail_urban rail rail_electric ship" oneway="0"/>
    <type id="highway.primary_link" priority="8" numLanes="1" speed="22.22" disallow="tram rail_urban rail rail_electric ship" oneway="0"/>
    <type id="highway.raceway" priority="14" numLanes="2" speed="83.33" allow="vip" oneway="0"/>
    <type id="highway.residential" priority="4" numLanes="1" speed="13.89" disallow="tram rail_urban rail rail_electric ship" oneway="0"/>
    <type id="highway.secondary" priority="7" numLanes="2" speed="27.78" disallow="tram rail_urban rail rail_electric ship" oneway="0"/>
    <type id="highway.secondary_link" priority="6" numLanes="1" speed="22.22" disallow="tram rail_urban rail rail_electric ship" oneway="0"/>
    <type id="highway.service" priority="2" numLanes="1" speed="5.56" allow="delivery bicycle pedestrian" oneway="0"/>
    <type id="highway.services" priority="1" numLanes="1" speed="8.33" disallow="tram rail_urban rail rail_electric ship" oneway="0"/>
    <type id="highway.stairs" priority="1" numLanes="1" speed="1.39" allow="pedestrian" oneway="1" width="2.00"/>
    <type id="highway.step" priority="1" numLanes="1" speed="1.39" allow="pedestrian" oneway="1" width="2.00"/>
    <type id="highway.steps" priority="1" numLanes="1" speed="1.39" allow="pedestrian" oneway="1" width="2.00"/>
    <type id="highway.tertiary" priority="6" numLanes="1" speed="22.22" disallow="tram rail_urban rail rail_electric ship" oneway="0"/>
    <type id="highway.tertiary_link" priority="5" numLanes="1" speed="22.22" disallow="tram rail_urban rail rail_electric ship" oneway="0"/>
    <type id="highway.track" priority="1" numLanes="1" speed="5.56" disallow="tram rail_urban rail rail_electric ship" oneway="0"/>
    <type id="highway.trunk" priority="11" numLanes="2" speed="27.78" disallow="tram rail_urban rail rail_electric bicycle pedestrian ship" oneway="0"/>
    <type id="highway.trunk_link" priority="10" numLanes="1" speed="22.22" disallow="tram rail_urban rail rail_electric bicycle pedestrian ship" oneway="0"/>
    <type id="highway.unclassified" priority="5" numLanes="1" speed="13.89" disallow="tram rail_urban rail rail_electric ship" oneway="0"/>
    <type id="highway.unsurfaced" priority="1" numLanes="1" speed="8.33" disallow="tram rail_urban rail rail_electric ship" oneway="0"/>
    <type id="railway.light_rail" priority="15" numLanes="1" speed="27.78" allow="rail_urban" oneway="1"/>
    <type id="railway.preserved" priority="15" numLanes="1" speed="27.78" allow="rail" oneway="1"/>
    <type id="railway.rail" priority="15" numLanes="1" speed="83.33" allow="rail rail_electric" oneway="1"/>
    <type id="railway.subway" priority="15" numLanes="1" speed="27.78" allow="rail_urban" oneway="1"/>
    <type id="railway.tram" priority="15" numLanes="1" speed="13.89" allow="tram" oneway="1"/>

    <edge id=":-35204_0" function="internal">
        <lane id=":-35204_0_0" index="0" disallow="tram rail_urban rail rail_electric ship" speed="22.22" length="5.22" shape="525.72,1844.36 523.48,1848.27"/>
        <lane id=":-35204_0_1" index="1" disallow="tram rail_urban rail rail_electric ship" speed="22.22" length="5.22" shape="523.27,1842.15 520.33,1847.30"/>
    </edge>
    <edge id=":-35204_2" function="internal">
        <lane id=":-35204_2_0" index="0" disallow="tram rail_urban rail rail_electric ship" speed="18.05" length="2.91" shape="523.27,1842.15 521.50,1843.30 520.70,1843.38"/>
    </edge>
    <edge id=":-35204_8" function="internal">
        <lane id=":-35204_8_0" index="0" speed="18.05" length="8.88" shape="520.70,1843.38 519.07,1843.54 515.98,1842.88 512.21,1841.31"/>
    </edge>
    <edge id=":-35204_3" function="internal">
        <lane id=":-35204_3_0" index="0" disallow="tram rail_urban rail rail_electric ship" speed="18.05" length="4.83" shape="513.97,1838.50 515.21,1838.93 516.35,1838.94 517.40,1838.55 518.35,1837.75"/>
    </edge>
    <edge id=":-35204_4" function="internal">
        <lane id=":-35204_4_0" index="0" disallow="tram rail_urban rail rail_electric ship" speed="18.05" length="11.84" shape="513.97,1838.50 517.32,1840.50 519.50,1842.64 520.50,1844.90 520.33,1847.30"/>
    </edge>
    <edge id=":-35204_5" function="internal">
        <lane id=":-35204_5_0" index="0" disallow="tram rail_urban rail rail_electric ship" speed="18.05" length="4.90" shape="514.02,1845.36 514.23,1844.08 513.99,1842.98 513.32,1842.06 512.21,1841.31"/>
    </edge>
    <edge id=":-35204_6" function="internal">
        <lane id=":-35204_6_0" index="0" disallow="tram rail_urban rail rail_electric ship" speed="22.22" length="8.05" shape="514.02,1845.36 518.35,1837.75"/>
        <lane id=":-35204_6_1" index="1" disallow="tram rail_urban rail rail_electric ship" speed="22.22" length="8.05" shape="517.18,1846.33 520.81,1839.95"/>
    </edge>
    <edge id=":-35228_0" function="internal">
        <lane id=":-35228_0_0" index="0" disallow="tram rail_urban rail rail_electric ship" speed="22.22" length="9.51" shape="795.39,1495.06 790.12,1502.98"/>
        <lane id=":-35228_0_1" index="1" disallow="tram rail_urban rail rail_electric ship" speed="22.22" length="9.51" shape="792.64,1493.23 787.38,1501.15"/>
    </edge>
    <edge id=":-35228_2" function="internal">
        <lane id=":-35228_2_0" index="0" disallow="tram rail_urban rail rail_electric ship" speed="18.05" length="4.29" shape="792.64,1493.23 790.68,1495.08 789.13,1495.45"/>
    </edge>
    <edge id=":-35228_8" function="internal">
        <lane id=":-35228_8_0" index="0" speed="18.05" length="8.74" shape="789.13,1495.45 788.06,1495.70 784.80,1495.08 780.89,1493.22"/>
    </edge>
    <edge id=":-35228_3" function="internal">
        <lane id=":-35228_3_0" index="0" disallow="tram rail_urban rail rail_electric ship" speed="18.05" length="5.24" shape="782.56,1490.37 783.94,1490.96 785.17,1491.03 786.24,1490.57 787.15,1489.58"/>
    </edge>
    <edge id=":-35228_4" function="internal">
        <lane id=":-35228_4_0" index="0" disallow="tram rail_urban rail rail_electric ship" speed="18.05" length="13.49" shape="782.56,1490.37 786.10,1492.94 788.08,1495.59 788.51,1498.33 787.38,1501.15"/>
    </edge>
    <edge id=":-35228_5" function="internal">
        <lane id=":-35228_5_0" index="0" disallow="tram rail_urban rail rail_electric ship" speed="18.05" length="5.07" shape="781.88,1497.50 782.48,1496.23 782.52,1495.10 781.99,1494.09 780.89,1493.22"/>
    </edge>
    <edge id=":-35228_6" function="internal">
        <lane id=":-35228_6_0" index="0" disallow="tram rail_urban rail rail_electric ship" speed="22.22" length="9.51" shape="781.88,1497.50 787.15,1489.58"/>
        <lane id=":-35228_6_1" index="1" disallow="tram rail_urban rail rail_electric ship" speed="22.22" length="9.51" shape="784.63,1499.32 789.90,1491.41"/>
    </edge>
    <edge id=":1524717108_0" function="internal">
        <lane id=":1524717108_0_0" index="0" disallow="tram rail_urban rail rail_electric ship" speed="27.78" length="0.10" shape="117.22,1748.44 117.26,1748.49"/>
        <lane id=":1524717108_0_1" index="1" disallow="tram rail_urban rail rail_electric ship" speed="27.78" length="0.10" shape="120.07,1746.76 120.08,1746.78"/>
    </edge>
    <edge id=":1524717108_2" function="internal">
        <lane id=":1524717108_2_0" index="0" disallow="tram rail_urban rail rail_electric ship" speed="27.78" length="0.10" shape="125.76,1743.42 125.76,1743.42"/>
        <lane id=":1524717108_2_1" index="1" disallow="tram rail_urban rail rail_electric ship" speed="27.78" length="0.10" shape="122.91,1745.09 122.92,1745.09"/>
    </edge>
    <edge id=":1654340335_0" function="internal">
        <lane id=":1654340335_0_0" index="0" disallow="tram rail_urban rail rail_electric ship" speed="22.22" length="9.50" shape="696.31,1656.93 691.39,1665.06"/>
        <lane id=":1654340335_0_1" index="1" disallow="tram rail_urban rail rail_electric ship" speed="22.22" length="9.50" shape="693.49,1655.23 688.56,1663.35"/>
    </edge>
    <edge id=":1654340335_2" function="internal">
        <lane id=":1654340335_2_0" index="0" disallow="tram rail_urban rail rail_electric ship" speed="18.05" length="4.48" shape="693.49,1655.23 691.53,1657.30 689.97,1657.76"/>
    </edge>
    <edge id=":1654340335_8" function="internal">
        <lane id=":1654340335_8_0" index="0" speed="18.05" length="8.61" shape="689.97,1657.76 688.94,1658.06 685.72,1657.53 681.86,1655.70"/>
    </edge>
    <edge id=":1654340335_3" function="internal">
        <lane id=":1654340335_3_0" index="0" disallow="tram rail_urban rail rail_electric ship" speed="18.05" length="5.03" shape="683.55,1652.86 684.83,1653.40 685.97,1653.40 686.97,1652.88 687.84,1651.82"/>
    </edge>
    <edge id=":1654340335_4" function="internal">
        <lane id=":1654340335_4_0" index="0" disallow="tram rail_urban rail rail_electric ship" speed="18.05" length="13.15" shape="683.55,1652.86 687.02,1655.39 689.01,1657.99 689.52,1660.64 688.56,1663.35"/>
    </edge>
    <edge id=":1654340335_5" function="internal">
        <lane id=":1654340335_5_0" index="0" disallow="tram rail_urban rail rail_electric ship" speed="18.05" length="5.01" shape="682.91,1659.94 683.46,1658.68 683.47,1657.56 682.93,1656.56 681.86,1655.70"/>
    </edge>
    <edge id=":1654340335_6" function="internal">
        <lane id=":1654340335_6_0" index="0" disallow="tram rail_urban rail rail_electric ship" speed="22.22" length="9.50" shape="682.91,1659.94 687.84,1651.82"/>
        <lane id=":1654340335_6_1" index="1" disallow="tram rail_urban rail rail_electric ship" speed="22.22" length="9.50" shape="685.74,1661.65 690.66,1653.52"/>
    </edge>
    <edge id=":476099844_0" function="internal">
        <lane id=":476099844_0_0" index="0" disallow="tram rail_urban rail rail_electric ship" speed="18.05" length="5.01" shape="735.66,178.65 734.39,178.12 733.26,178.13 732.26,178.67 731.41,179.74"/>
    </edge>
    <edge id=":476099844_1" function="internal">
        <lane id=":476099844_1_0" index="0" disallow="tram rail_urban rail rail_electric ship" speed="18.05" length="13.08" shape="735.66,178.65 732.21,176.14 730.20,173.56 729.62,170.91 730.47,168.21"/>
    </edge>
    <edge id=":476099844_2" function="internal">
        <lane id=":476099844_2_0" index="0" disallow="tram rail_urban rail rail_electric ship" speed="18.05" length="7.91" shape="733.33,169.84 733.01,171.22 733.57,172.67 735.02,174.21 737.35,175.82"/>
    </edge>
    <edge id=":476099844_3" function="internal">
        <lane id=":476099844_3_0" index="0" disallow="tram rail_urban rail rail_electric ship" speed="22.22" length="9.51" shape="733.33,169.84 728.56,178.07"/>
    </edge>
    <edge id=":476099844_4" function="internal">
        <lane id=":476099844_4_0" index="0" disallow="tram rail_urban rail rail_electric ship" speed="22.22" length="10.18" shape="722.87,174.73 724.78,172.50 726.69,171.48 728.59,170.45 730.47,168.21"/>
    </edge>
    <edge id=":476099844_5" function="internal">
        <lane id=":476099844_5_0" index="0" disallow="tram rail_urban rail rail_electric ship" speed="18.05" length="4.47" shape="725.72,176.40 727.67,174.27 729.19,173.80"/>
    </edge>
    <edge id=":476099844_6" function="internal">
        <lane id=":476099844_6_0" index="0" speed="18.05" length="8.67" shape="729.19,173.80 730.26,173.47 733.49,173.98 737.35,175.82"/>
    </edge>
    <edge id=":476099845_0" function="internal">
        <lane id=":476099845_0_0" index="0" disallow="tram rail_urban rail rail_electric ship" speed="18.05" length="5.01" shape="635.09,349.95 633.81,349.43 632.68,349.44 631.69,349.99 630.85,351.08"/>
    </edge>
    <edge id=":476099845_1" function="internal">
        <lane id=":476099845_1_0" index="0" disallow="tram rail_urban rail rail_electric ship" speed="18.05" length="13.12" shape="635.09,349.95 631.62,347.44 629.60,344.87 629.04,342.22 629.93,339.50"/>
    </edge>
    <edge id=":476099845_2" function="internal">
        <lane id=":476099845_2_0" index="0" disallow="tram rail_urban rail rail_electric ship" speed="18.05" length="5.04" shape="635.62,342.84 635.10,344.11 635.12,345.24 635.67,346.24 636.76,347.11"/>
    </edge>
    <edge id=":476099845_3" function="internal">
        <lane id=":476099845_3_0" index="0" disallow="tram rail_urban rail rail_electric ship" speed="22.22" length="9.54" shape="635.62,342.84 630.85,351.08"/>
        <lane id=":476099845_3_1" index="1" disallow="tram rail_urban rail rail_electric ship" speed="22.22" length="9.54" shape="632.77,341.17 627.98,349.44"/>
    </edge>
    <edge id=":476099845_5" function="internal">
        <lane id=":476099845_5_0" index="0" disallow="tram rail_urban rail rail_electric ship" speed="22.22" length="9.61" shape="622.26,346.16 627.08,337.83"/>
        <lane id=":476099845_5_1" index="1" disallow="tram rail_urban rail rail_electric ship" speed="22.22" length="9.61" shape="625.12,347.80 629.93,339.50"/>
    </edge>
    <edge id=":476099845_7" function="internal">
        <lane id=":476099845_7_0" index="0" disallow="tram rail_urban rail rail_electric ship" speed="18.05" length="4.55" shape="625.12,347.80 627.06,345.64 628.63,345.13"/>
    </edge>
    <edge id=":476099845_8" function="internal">
        <lane id=":476099845_8_0" index="0" speed="18.05" length="8.62" shape="628.63,345.13 629.65,344.80 632.88,345.29 636.76,347.11"/>
    </edge>
    <edge id=":476099847_0" function="internal">
        <lane id=":476099847_0_0" index="0" disallow="tram rail_urban rail rail_electric ship" speed="18.05" length="5.00" shape="531.70,530.51 530.43,529.99 529.30,530.01 528.31,530.55 527.46,531.62"/>
    </edge>
    <edge id=":476099847_1" function="internal">
        <lane id=":476099847_1_0" index="0" disallow="tram rail_urban rail rail_electric ship" speed="18.05" length="13.05" shape="531.70,530.51 528.24,528.03 526.21,525.48 525.63,522.85 526.48,520.14"/>
    </edge>
    <edge id=":476099847_2" function="internal">
        <lane id=":476099847_2_0" index="0" disallow="tram rail_urban rail rail_electric ship" speed="18.05" length="5.00" shape="532.21,523.41 531.71,524.69 531.73,525.82 532.28,526.80 533.36,527.65"/>
    </edge>
    <edge id=":476099847_3" function="internal">
        <lane id=":476099847_3_0" index="0" disallow="tram rail_urban rail rail_electric ship" speed="22.22" length="9.47" shape="532.21,523.41 527.46,531.62"/>
        <lane id=":476099847_3_1" index="1" disallow="tram rail_urban rail rail_electric ship" speed="22.22" length="9.47" shape="529.35,521.78 524.61,529.95"/>
    </edge>
    <edge id=":476099847_5" function="internal">
        <lane id=":476099847_5_0" index="0" disallow="tram rail_urban rail rail_electric ship" speed="22.22" length="9.40" shape="518.92,526.62 523.62,518.50"/>
        <lane id=":476099847_5_1" index="1" disallow="tram rail_urban rail rail_electric ship" speed="22.22" length="9.40" shape="521.77,528.29 526.48,520.14"/>
    </edge>
    <edge id=":476099847_7" function="internal">
        <lane id=":476099847_7_0" index="0" disallow="tram rail_urban rail rail_electric ship" speed="18.05" length="4.45" shape="521.77,528.29 523.70,526.19 525.22,525.71"/>
    </edge>
    <edge id=":476099847_8" function="internal">
        <lane id=":476099847_8_0" index="0" speed="18.05" length="8.62" shape="525.22,525.71 526.27,525.38 529.49,525.87 533.36,527.65"/>
    </edge>
    <edge id=":476099850_0" function="internal">
        <lane id=":476099850_0_0" index="0" disallow="tram rail_urban rail rail_electric ship" speed="19.45" length="7.86" shape="422.22,716.79 420.84,716.23 419.63,716.22 418.59,716.75 417.74,717.81"/>
        <lane id=":476099850_0_1" index="1" disallow="tram rail_urban rail rail_electric ship" speed="19.45" length="7.86" shape="423.83,713.90 421.10,712.84 418.70,712.85 416.62,713.96 414.88,716.16"/>
    </edge>
    <edge id=":476099850_2" function="internal">
        <lane id=":476099850_2_0" index="0" disallow="tram rail_urban rail rail_electric ship" speed="25.00" length="15.92" shape="423.83,713.90 420.34,711.25 418.59,708.13 418.55,704.55 420.24,700.51"/>
    </edge>
    <edge id=":476099850_3" function="internal">
        <lane id=":476099850_3_0" index="0" disallow="tram rail_urban rail rail_electric ship" speed="25.00" length="7.76" shape="425.91,703.90 425.37,705.18 425.38,706.31 425.94,707.30 427.04,708.14"/>
        <lane id=":476099850_3_1" index="1" disallow="tram rail_urban rail rail_electric ship" speed="25.00" length="7.76" shape="423.08,702.21 421.96,704.87 421.98,707.22 423.14,709.27 425.44,711.02"/>
    </edge>
    <edge id=":476099850_5" function="internal">
        <lane id=":476099850_5_0" index="0" disallow="tram rail_urban rail rail_electric ship" speed="16.67" length="16.18" shape="423.08,702.21 420.61,706.33 418.94,709.16 417.28,712.00 414.88,716.16"/>
    </edge>
    <edge id=":476099850_6" function="internal">
        <lane id=":476099850_6_0" index="0" disallow="tram rail_urban rail rail_electric ship" speed="16.67" length="16.29" shape="409.16,712.86 411.58,708.68 413.24,705.82 414.93,702.97 417.41,698.82"/>
    </edge>
    <edge id=":476099850_7" function="internal">
        <lane id=":476099850_7_0" index="0" disallow="tram rail_urban rail rail_electric ship" speed="19.45" length="7.57" shape="412.02,714.51 414.65,711.18 417.57,709.59"/>
    </edge>
    <edge id=":476099850_8" function="internal">
        <lane id=":476099850_8_0" index="0" speed="19.45" length="8.19" shape="417.57,709.59 417.77,709.49 421.36,709.44 425.44,711.02"/>
    </edge>
    <edge id=":901053247_0" function="internal">
        <lane id=":901053247_0_0" index="0" disallow="tram rail_urban rail rail_electric bicycle pedestrian ship" speed="27.78" length="19.33" shape="3.89,1457.98 -1.33,1452.19 -4.37,1446.91 -5.23,1442.17 -3.91,1437.94"/>
        <lane id=":901053247_0_1" index="1" disallow="tram rail_urban rail rail_electric bicycle pedestrian ship" speed="27.78" length="19.33" shape="6.18,1455.60 1.70,1450.75 -1.00,1446.48 -1.93,1442.78 -1.09,1439.66"/>
        <lane id=":901053247_0_2" index="2" disallow="tram rail_urban rail rail_electric bicycle pedestrian ship" speed="27.78" length="19.33" shape="6.18,1455.60 2.80,1451.73 0.93,1448.07 0.57,1444.62 1.73,1441.38"/>
    </edge>
    <edge id=":901053247_3" function="internal">
        <lane id=":901053247_3_0" index="0" disallow="tram rail_urban rail rail_electric ship" speed="27.78" length="7.01" shape="10.18,1446.53 9.68,1447.69 9.60,1448.79 9.96,1449.84 10.74,1450.83"/>
        <lane id=":901053247_3_1" index="1" disallow="tram rail_urban rail rail_electric ship" speed="27.78" length="7.01" shape="7.37,1444.81 6.37,1447.08 6.23,1449.23 6.92,1451.28 8.46,1453.22"/>
    </edge>
    <edge id=":901065942_0" function="internal">
        <lane id=":901065942_0_0" index="0" disallow="tram rail_urban rail rail_electric bicycle pedestrian ship" speed="20.84" length="5.00" shape="54.12,1380.36 52.86,1379.82 51.73,1379.81 50.73,1380.34 49.86,1381.40"/>
    </edge>
    <edge id=":901065942_1" function="internal">
        <lane id=":901065942_1_0" index="0" disallow="tram rail_urban rail rail_electric bicycle pedestrian ship" speed="20.84" length="17.41" shape="54.12,1380.36 48.23,1376.33 44.47,1372.69 42.84,1369.44 43.33,1366.59"/>
        <lane id=":901065942_1_1" index="1" disallow="tram rail_urban rail rail_electric bicycle pedestrian ship" speed="20.84" length="17.41" shape="54.12,1380.36 49.47,1377.07 46.59,1373.96 45.50,1371.02 46.18,1368.26"/>
    </edge>
    <edge id=":901065942_3" function="internal">
        <lane id=":901065942_3_0" index="0" disallow="tram rail_urban rail rail_electric ship" speed="20.84" length="5.02" shape="54.72,1373.27 54.21,1374.53 54.22,1375.66 54.76,1376.67 55.84,1377.54"/>
    </edge>
    <edge id=":901065942_4" function="internal">
        <lane id=":901065942_4_0" index="0" disallow="tram rail_urban rail rail_electric bicycle pedestrian ship" speed="27.78" length="9.42" shape="54.72,1373.27 49.86,1381.40"/>
        <lane id=":901065942_4_1" index="1" disallow="tram rail_urban rail rail_electric bicycle pedestrian ship" speed="27.78" length="9.42" shape="51.87,1371.60 47.04,1379.68"/>
        <lane id=":901065942_4_2" index="2" disallow="tram rail_urban rail rail_electric bicycle pedestrian ship" speed="27.78" length="9.42" shape="49.03,1369.93 44.22,1377.96"/>
    </edge>
    <edge id=":901065942_7" function="internal">
        <lane id=":901065942_7_0" index="0" disallow="tram rail_urban rail rail_electric bicycle pedestrian ship" speed="27.78" length="9.25" shape="35.77,1372.81 40.49,1364.92"/>
        <lane id=":901065942_7_1" index="1" disallow="tram rail_urban rail rail_electric bicycle pedestrian ship" speed="27.78" length="9.25" shape="38.59,1374.53 43.33,1366.59"/>
        <lane id=":901065942_7_2" index="2" disallow="tram rail_urban rail rail_electric bicycle pedestrian ship" speed="27.78" length="9.25" shape="41.40,1376.25 46.18,1368.26"/>
    </edge>
    <edge id=":901065942_10" function="internal">
        <lane id=":901065942_10_0" index="0" disallow="tram rail_urban rail rail_electric ship" speed="20.84" length="4.03" shape="41.40,1376.25 43.55,1374.28 44.65,1374.12"/>
    </edge>
    <edge id=":901065942_11" function="internal">
        <lane id=":901065942_11_0" index="0" speed="20.84" length="11.98" shape="44.65,1374.12 46.68,1373.84 50.77,1374.93 55.84,1377.54"/>
    </edge>
    <edge id=":901205346_0" function="internal">
        <lane id=":901205346_0_0" index="0" disallow="tram rail_urban rail rail_electric ship" speed="22.22" length="9.49" shape="1029.84,1383.83 1025.05,1392.03"/>
    </edge>
    <edge id=":901205346_1" function="internal">
        <lane id=":901205346_1_0" index="0" disallow="tram rail_urban rail rail_electric ship" speed="18.05" length="5.27" shape="1029.84,1383.83 1028.08,1386.04 1026.04,1387.16 1025.92,1387.17"/>
    </edge>
    <edge id=":901205346_6" function="internal">
        <lane id=":901205346_6_0" index="0" speed="18.05" length="5.05" shape="1025.92,1387.17 1023.70,1387.19 1021.08,1386.13"/>
    </edge>
    <edge id=":901205346_2" function="internal">
        <lane id=":901205346_2_0" index="0" disallow="tram rail_urban rail rail_electric ship" speed="18.05" length="5.01" shape="1022.74,1383.28 1024.01,1383.80 1025.14,1383.78 1026.14,1383.24 1026.99,1382.17"/>
    </edge>
    <edge id=":901205346_3" function="internal">
        <lane id=":901205346_3_0" index="0" disallow="tram rail_urban rail rail_electric ship" speed="18.05" length="10.33" shape="1022.74,1383.28 1024.96,1385.03 1026.09,1387.07 1026.12,1389.41 1025.05,1392.03"/>
    </edge>
    <edge id=":901205346_4" function="internal">
        <lane id=":901205346_4_0" index="0" disallow="tram rail_urban rail rail_electric ship" speed="18.05" length="5.00" shape="1022.20,1390.37 1022.72,1389.10 1022.70,1387.97 1022.16,1386.98 1021.08,1386.13"/>
    </edge>
    <edge id=":901205346_5" function="internal">
        <lane id=":901205346_5_0" index="0" disallow="tram rail_urban rail rail_electric ship" speed="22.22" length="9.50" shape="1022.20,1390.37 1026.99,1382.17"/>
    </edge>
    <edge id=":901205379_0" function="internal">
        <lane id=":901205379_0_0" index="0" disallow="tram rail_urban rail rail_electric ship" speed="12.50" length="5.09" shape="323.33,886.83 322.02,886.29 320.85,886.27 319.84,886.79 318.96,887.84"/>
    </edge>
    <edge id=":901205379_1" function="internal">
        <lane id=":901205379_1_0" index="0" disallow="tram rail_urban rail rail_electric ship" speed="12.50" length="10.99" shape="323.33,886.83 319.72,884.50 317.37,882.45 316.27,880.68 316.43,879.20"/>
    </edge>
    <edge id=":901205379_2" function="internal">
        <lane id=":901205379_2_0" index="0" disallow="tram rail_urban rail rail_electric ship" speed="11.11" length="6.15" shape="322.12,882.53 318.96,887.84"/>
        <lane id=":901205379_2_1" index="1" disallow="tram rail_urban rail rail_electric ship" speed="11.11" length="6.15" shape="319.28,880.87 316.15,886.12"/>
    </edge>
    <edge id=":901205379_4" function="internal">
        <lane id=":901205379_4_0" index="0" disallow="tram rail_urban rail rail_electric ship" speed="11.11" length="6.03" shape="310.51,882.69 313.58,877.53"/>
        <lane id=":901205379_4_1" index="1" disallow="tram rail_urban rail rail_electric ship" speed="11.11" length="6.03" shape="313.33,884.40 316.43,879.20"/>
    </edge>
    <edge id=":901205417_0" function="internal">
        <lane id=":901205417_0_0" index="0" disallow="tram rail_urban rail rail_electric ship" speed="13.89" length="5.01" shape="785.09,1249.61 783.82,1249.10 782.68,1249.12 781.69,1249.67 780.84,1250.75"/>
    </edge>
    <edge id=":901205417_1" function="internal">
        <lane id=":901205417_1_0" index="0" disallow="tram rail_urban rail rail_electric ship" speed="13.89" length="9.57" shape="785.09,1249.61 776.80,1244.82"/>
    </edge>
    <edge id=":901205417_2" function="internal">
        <lane id=":901205417_2_0" index="0" disallow="tram rail_urban rail rail_electric ship" speed="13.89" length="5.27" shape="785.09,1249.61 782.87,1247.87 781.73,1245.82 781.73,1245.71"/>
    </edge>
    <edge id=":901205417_12" function="internal">
        <lane id=":901205417_12_0" index="0" speed="13.89" length="5.11" shape="781.73,1245.71 781.67,1243.46 782.68,1240.78"/>
    </edge>
    <edge id=":901205417_3" function="internal">
        <lane id=":901205417_3_0" index="0" disallow="tram rail_urban rail rail_electric ship" speed="13.89" length="5.14" shape="785.58,1242.37 785.07,1243.70 785.09,1244.88 785.65,1245.89 786.74,1246.75"/>
    </edge>
    <edge id=":901205417_4" function="internal">
        <lane id=":901205417_4_0" index="0" disallow="tram rail_urban rail rail_electric ship" speed="13.89" length="9.63" shape="785.58,1242.37 780.84,1250.75"/>
    </edge>
    <edge id=":901205417_5" function="internal">
        <lane id=":901205417_5_0" index="0" disallow="tram rail_urban rail rail_electric ship" speed="13.89" length="10.44" shape="785.58,1242.37 783.85,1244.67 781.82,1245.84 779.47,1245.89 776.80,1244.82"/>
    </edge>
    <edge id=":901205417_6" function="internal">
        <lane id=":901205417_6_0" index="0" disallow="tram rail_urban rail rail_electric ship" speed="13.89" length="5.03" shape="778.46,1241.96 779.74,1242.48 780.87,1242.46 781.85,1241.89 782.68,1240.78"/>
    </edge>
    <edge id=":901205417_7" function="internal">
        <lane id=":901205417_7_0" index="0" disallow="tram rail_urban rail rail_electric ship" speed="13.89" length="9.56" shape="778.46,1241.96 786.74,1246.75"/>
    </edge>
    <edge id=":901205417_8" function="internal">
        <lane id=":901205417_8_0" index="0" disallow="tram rail_urban rail rail_electric ship" speed="13.89" length="5.33" shape="778.46,1241.96 780.71,1243.73 781.86,1245.79 781.86,1245.89"/>
    </edge>
    <edge id=":901205417_13" function="internal">