<?xml version="1.0"?>
<!-- generated on 2017-02-22 17:57:57.763989 by $Id: randomTrips.py 19495 2015-12-02 12:36:28Z behrisch $
  options: -n ottawa.100.roads.xml <doubleminus>r ottawa.100.routes.xml -a ottawa.100.randomTrips.xml <doubleminus>begin 0 <doubleminus>end 10.00 <doubleminus>period 0.1 <doubleminus>min-distance 0 <doubleminus>fringe-factor 1 <doubleminus>intermediate 30 -l <doubleminus>trip-attributes=departSpeed="max"  departPos="random" -o ottawa.100.trips.xml
-->
<trips>
    <trip id="0" depart="0.00" from="-76441202#1" to="76443156#4" via="-139108139 258787159#2 -76442583#0 76442079#4 -305807458#0 -258787159#6 76442090#1 -76441437#2 76443176#4 -76443747#1 76443355#2 76442648#2 76441495#1 -76442150 76443156#2 76441385#3 76441365#3 -258787159#7 -76443372#1 76445041#5 76443156#4 -362066955#0 -76442443#2 76443031#1 -76445041#2 76441141#5 -76442079#0 76441807#2 76441495#2 -76441958#4" departSpeed="max"  departPos="random"/>
    <trip id="1" depart="0.10" from="76442018#0" to="76441067#3" via="-76442583#4 258787159#3 -76441526 362066955#0 -76443355#0 -362066955#0 76442079#3 -76441385#3 76441141#0 -76443372#1 76442443#1 258787159#2 -362066955#2 -76442443#2 258787159#6 -76441234#1 76443156#4 362066955#4 -76419221#0 -76441807#2 76442090#0 76441067#3 305807458#0 -77699442 76443372#8 -76441164#5 77699442 -76441807#0 76443747#1 76441164#8" departSpeed="max"  departPos="random"/>
    <trip id="2" depart="0.20" from="-152627338#0" to="76443747#3" via="-258787159#7 -76443355#3 -76441958#1 76441365#2 -305807458#2 76441141#1 76441807#1 305807458#0 76441385#2 -258787159#7 76443355#2 -76441202#0 -258787159#6 76441234#1 76443156#4 -76442443#8 76441067#2 76442471#3 -258787159#4 -76441067#3 -76441437#0 77699442 -76443747#2 -76441202#1 -76441787#2 362066955#2 76441807#2 -76441669 76443372#8 -76442018#1" departSpeed="max"  departPos="random"/>
    <trip id="3" depart="0.30" from="-76443312#3" to="362066955#1" via="-76442583#2 76441141#2 -77699442 76443156#4 -76441958#2 76441437#3 76441141#5 76441141#1 -76441531#2 -76441067#3 76443156#3 76441067#1 -258787159#7 258787159#4 76441904 76441234#2 76441958#1 76441958#1 -76441164#0 -76441694#1 305807458#2 258787159#5 76445041#6 -76442443#5 76443031#0 76442443#7 -76443747#3 76443747#2 76441807#2 76442443#1" departSpeed="max"  departPos="random"/>
    <trip id="4" depart="0.40" from="76441067#2" to="76441787#9" via="76441669 76445041#6 -76443747#3 -76441067#3 76442443#5 76441807#3 361431608#2 -361431608#2 362066955#3 362066955#2 76441365#2 -76441904 -76443372#0 362066954 -152627338#0 361431608#4 76443355#2 -76441787#9 -76441807#0 76441141#5 76443176#5 -76441437#0 -258787159#4 -76441067#0 -76441531#1 -76443156#1 362066954 -76441531#2 -152673567#0 361431608#4" departSpeed="max"  departPos="random"/>
    <trip id="5" depart="0.50" from="76441385#2" to="76443176#2" via="76419487 76442090#2 -362066955#1 305807458#2 76443372#2 258787159#1 361431608#0 -76441234#2 76441234#2 -76443355#1 -362066955#4 76441787#5 76441787#8 -362066955#3 76441067#1 -76441385#3 -361431608#3 -305807458#0 76443031#1 76445041#5 -76419487 -76441437#0 76442583#2 -361431608#2 76443355#2 -76441067#1 76441385#0 -76441773 76441234#3 -76441164#2" departSpeed="max"  departPos="random"/>
    <trip id="6" depart="0.60" from="-40376" to="76443031#0" via="362066956 -76443372#1 -305807458#2 76441807#1 362066955#2 76442090#0 76443355#3 -76442018#1 -305807458#2 -76441807#1 -367636030#1 76442648#0 -76442471#1 -76441365#1 76441773 76443747#0 -76419221#0 76441067#3 76441958#0 -76443747#1 76443176#3 -76445041#3 361431608#1 76442090#2 76441164#4 76441065#0 76442960 76443355#2 -361431608#3 -152673567#1" departSpeed="max"  departPos="random"/>
    <trip id="7" depart="0.70" from="258787159#2" to="-361431608#0" via="-76441807#0 76443176#1 -76445041#0 -76443156#1 -76441065#1 76443176#0 -76441385#0 -76442079#0 -76443312#2 76442648#0 -76445041#8 -76441958#4 -76443747#1 76441694#1 76441234#3 -76441482#0 152627338#0 76441065#0 -76445041#1 76443156#4 --40374 76443355#2 76441807#1 -76441385#1 -76441065#0 -76441065#1 362066954 305807458#2 76441141#3 -305807458#0" departSpeed="max"  departPos="random"/>
    <trip id="8" depart="0.80" from="-305807458#0" to="-258787159#6" via="76442583#3 362066955#5 76441669 76441065#1 -76442471#3 -76442079#3 -76441787#2 -76441067#1 76443747#0 76443747#1 76441234#3 -76442443#2 76442443#8 300719826 76442079#2 300719826 -76441067#0 76443747#1 76442648#1 -76442018#0 -76442018#0 -76443372#8 76441437#3 -76441202#0 76443176#3 76441067#3 76441495#2 -152627338#0 76442443#0 76441065#1" departSpeed="max"  departPos="random"/>
    <trip id="9" depart="0.90" from="76445041#5" to="-76441531#6" via="-76442583#4 76443156#4 362066955#5 76443747#0 -76441365#2 -76441202#0 76441164#5 -76443747#1 76441385#0 -76442090#2 -76442471#3 -76441437#3 76442079#2 76441531#6 76441141#3 76442079#2 -305807458#2 -76442443#8 76445041#2 76442090#2 -76441958#1 -76443747#3 -321748518 -76442648#1 -76441385#2 258787159#6 -76445041#3 76442583#3 -76442018#0 -76442090#1" departSpeed="max"  departPos="random"/>
    <trip id="10" depart="1.00" from="-361431608#0" to="76441234#0" via="362066955#1 361431608#0 -258787159#6 -76443747#3 -76442090#1 76443312#2 -76441526 -76441437#3 76419487 -76441385#1 -76443156#1 76443176#2 258787159#6 152627338#0 -76442443#3 -76442443#0 362066955#0 -76443312#0 -76442471#0 76419221#0 76441807#3 76442090#0 76441141#2 76443176#2 76441164#4 -76443747#3 76443747#2 76443156#1 -76443372#5 -362066956" departSpeed="max"  departPos="random"/>
    <trip id="11" depart="1.10" from="-76441065#0" to="76441807#2" via="76442443#0 -76441526 361431608#3 76441065#2 -76443587 -76443747#1 76443156#4 -76441531#2 76442443#8 -76445041#7 76443355#3 76442648#2 76443031#1 -76441773 -76443372#3 -76441531#4 -76443372#8 -76442443#6 -76441385#0 -76441067#2 -76442443#5 -305807458#0 -76441437#2 -76441437#3 76442079#0 76441787#5 -76441531#2 -76441065#1 76443355#3 76443372#2" departSpeed="max"  departPos="random"/>
    <trip id="12" depart="1.20" from="-76442079#1" to="76441202#2" via="-76442583#1 76443312#2 76441437#0 76443156#2 76443372#3 76442079#2 76443156#4 76441067#3 -76441694#1 -76445041#5 361431608#0 76441164#0 -76441437#0 -367636030#1 -76442079#0 -76442443#3 76441531#6 -76441065#1 -76419221#0 -76441531#7 -76441437#0 258787159#1 76443747#2 -152673567#0 76441437#0 -76441067#1 -76443747#2 -76441694#1 76441234#3 -76445041#1" departSpeed="max"  departPos="random"/>
    <trip id="13" depart="1.30" from="76442443#2" to="-76442443#10" via="-40376 76441067#0 300719826 258787159#2 76441065#1 361431608#3 -76441065#1 -76441787#1 76441531#5 -77699442 -76445041#3 76443156#4 305807458#2 76441234#1 76441067#2 76442090#2 -76442648#2 -76441065#0 362066955#3 -77699442 76442018#0 76441807#2 76441141#0 76443031#2 76441807#1 -362066955#2 -76442443#4 76442443#8 76441385#0 362066955#1" departSpeed="max"  departPos="random"/>
    <trip id="14" depart="1.40" from="362066954" to="76442443#8" via="76441067#1 258787159#2 -76443355#0 76442443#8 -76443587 76441065#2 362066955#5 -76443156#0 -76443587 76441807#2 76441164#6 76443372#5 -76441958#1 76419221#0 76441531#2 -152627338#0 -76442443#8 76442583#3 258787159#1 76441067#0 -76442443#8 305807458#0 76441495#0 -305807458#0 -76443747#0 76441234#0 76441365#1 -76443355#1 -76442443#9 76441141#2" departSpeed="max"  departPos="random"/>
    <trip id="15" depart="1.50" from="76441437#0" to="-76441531#6" via="76441482#1 76441526 76442443#0 -305807458#0 76441065#2 300719826 -362066955#2 -76443372#0 -76441669 305807458#2 76441904 362066955#3 76443176#0 -76442471#0 -76443261 76442443#8 76442471#3 76441807#2 76442443#2 -76441669 76441495#0 76442090#3 -258787159#1 -152627338#0 -258787159#3 76441141#6 -76441787#2 362066955#5 305807458#0 -76442079#4" departSpeed="max"  departPos="random"/>
    <trip id="16" depart="1.60" from="152627338#1" to="-76442583#0" via="76442583#4 76442090#1 76445041#1 76441437#1 362066954 76441904 76442443#8 -76442443#0 76443031#1 -76419221#0 -76441495#1 -362066955#1 -76441385#1 -76442090#1 76443372#3 76441495#1 -76441067#2 76442960 -76441531#1 76442018#0 76441234#3 76445041#2 76441365#1 -76442090#0 76443156#4 -76442018#0 76443031#2 76441437#0 -40376 76441385#3" departSpeed="max"  departPos="random"/>
    <trip id="17" depart="1.70" from="76443372#0" to="76443747#1" via="76441141#6 -305807458#0 76441365#2 76441694#1 76441807#2 -76441531#2 -367636030#1 -76442583#2 -76442079#2 76441531#0 -76442443#8 -76441164#6 -76442648#2 258787159#2 77699442 361431608#2 -258787159#1 362066955#0 -76441385#2 -76441787#5 -76441531#5 -361431608#2 -76441164#7 -76441904 -76419221#1 -152673567#1 -76441807#0 362066955#5 76442090#1 76441365#1" departSpeed="max"  departPos="random"/>
    <trip id="18" depart="1.80" from="76441385#0" to="-76443312#2" via="76441385#0 76441065#0 305807458#2 -76445041#3 -76419221#2 76441385#2 -76441164#0 76442079#0 77699442 -76441067#1 -76441482#1 76443372#3 -40376 300719826 -76441234#3 76443031#0 -361431608#4 -152627338#0 -76441958#0 -76442648#2 -76441385#3 -362066955#1 76443372#5 76441065#0 76445041#6 -76441437#4 76441787#7 76441807#2 -152673567#1 305807458#0" departSpeed="max"  departPos="random"/>
    <trip id="19" depart="1.90" from="-76443261" to="77699442" via="367636030#0 -76419221#0 -76441958#0 76441437#0 361431608#0 -76441067#0 -76441669 76443176#0 76441065#2 76443031#0 76442648#1 76443176#4 -76441164#2 76443312#3 -361431608#4 76443031#1 -76419221#1 -76442090#0 76442443#7 -305807458#0 76442583#4 -76441773 76441773 76441787#2 -76443372#0 76441531#1 -76441164#1 76442443#0 305807458#2 -362066953" departSpeed="max"  departPos="random"/>
    <trip id="20" depart="2.00" from="-76441385#1" to="-367636030#1" via="-77699442 76443747#0 76442443#7 -76442443#7 -76443156#1 -76441807#0 76441141#1 -76443372#3 -76442583#2 -361431608#0 -76442443#0 76443355#3 -76441958#1 -258787159#7 76441234#1 362066955#3 -258787159#6 -258787159#1 76441787#9 -258787159#5 -362066955#4 139108139 76441526 76441437#3 76441065#2 76443176#0 -305807458#2 -76441787#1 -361431608#3 76443312#3" departSpeed="max"  departPos="random"/>
    <trip id="21" depart="2.10" from="-76443372#7" to="76441234#2" via="152627338#0 76443747#1 -76441234#1 -76441067#1 76442150 -76443372#2 76443156#2 -76441385#0 76443176#2 76441141#1 76443747#0 305807458#0 76445041#3 76441141#4 -76441958#0 76441202#1 76443176#3 76445041#0 -76442443#1 76443747#2 -76442150 76441437#0 -76441531#4 362066955#0 -76442443#2 305807458#2 76442443#5 76442443#4 -76441787#1 -76441958#4" departSpeed="max"  departPos="random"/>
    <trip id="22" depart="2.20" from="-258787159#5" to="76441067#2" via="-76441531#2 76443156#4 -76441065#1 76441787#7 -76441531#6 -76442090#0 76443747#1 76442090#0 76441958#3 -361431608#0 -76441437#0 -76442090#2 -76443747#2 -76441385#3 76442443#3 -76441385#0 76441531#1 362066955#3 76443176#2 76441385#3 76442443#9 76442090#1 -76441234#3 -76441526 76443031#1 76442471#1 -76441807#1 76441234#3 305807458#2 305807458#0" departSpeed="max"  departPos="random"/>
    <trip id="23" depart="2.30" from="76442150" to="76442090#0" via="305807458#2 76445041#0 -76442090#1 -76443156#1 -76441773 300719826 -76442090#1 76443372#7 258787159#3 -76441067#1 -76443355#1 76441495#2 77699442 -76441495#1 76442648#2 -76442090#2 362066955#3 -76441067#1 76441365#1 362066955#2 -76441164#5 -76441164#5 -76442079#0 362066955#4 -76443372#0 76441141#6 -76442471#3 -76442648#2 -76442471#3 -76441437#1" departSpeed="max"  departPos="random"/>
    <trip id="24" depart="2.40" from="-76443355#0" to="-76443261" via="-76442090#3 76441773 76441787#9 -76442583#4 76441958#3 -76443156#0 76442090#3 -76441164#5 -258787159#7 76441694#1 -76442443#3 305807458#2 367636030#0 76443312#3 -76443372#0 76441065#0 76441164#7 -76443372#4 76441694#1 -362066955#1 -76442090#3 -76442583#0 152673567#1 76441067#2 76445041#1 305807458#0 362066955#2 76441365#3 -76443156#1 76441437#0" departSpeed="max"  departPos="random"/>
    <trip id="25" depart="2.50" from="76443156#4" to="152673567#0" via="-76442471#2 -76443156#2 -76443747#0 -76441164#4 76441437#4 305807458#2 -76441787#5 -76441067#3 -76443261 76443355#3 76442443#0 76419221#0 76441365#1 76443355#2 76441385#1 76441807#2 -76442079#4 -76441807#2 76442090#3 -76443747#2 76443372#7 -362066955#3 76441141#4 -258787159#7 305807458#0 76443156#3 361431608#1 76441958#0 -76442443#2 76441234#3" departSpeed="max"  departPos="random"/>
    <trip id="26" depart="2.60" from="-76442079#0" to="-76445041#1" via="76441202#0 76442648#1 -76441787#8 -76441437#0 -76441067#1 -76445041#2 -76443261 76441787#1 305807458#0 -305807458#2 -258787159#5 -76443747#0 -76442443#1 76441141#3 76445041#5 -305807458#0 -76441164#8 76443176#3 -258787159#2 -139108139 361431608#2 361431608#0 76445041#4 76442648#2 76441202#0 76441202#0 76442443#1 -76441904 76443372#3 -76443355#1" departSpeed="max"  departPos="random"/>
    <trip id="27" depart="2.70" from="76441787#5" to="76442648#0" via="-76442090#1 -76441958#3 -76441067#3 76441067#2 -76443372#1 76441787#5 76441067#0 -76441065#0 76441437#0 -361431608#2 76445041#1 -76442443#3 -76441164#0 -362066955#4 76443747#3 76442079#3 76443176#4 76442583#1 -76445041#6 76442443#4 -76441067#3 -76442648#1 76442648#2 76441067#0 76442090#0 -76442443#8 76441141#5 -76442443#8 -76441067#0 -76443312#0" departSpeed="max"  departPos="random"/>
    <trip id="28" depart="2.80" from="-76442443#10" to="-76442471#1" via="-76442583#4 305807458#2 -258787159#6 76443031#1 76441904 -76441531#1 76441958#0 -76441807#0 -362066955#2 76441164#6 76441807#3 -76419221#0 361431608#0 -305807458#0 76441065#0 -76441437#3 -40376 76441531#0 -362066955#1 76441164#1 76443355#3 -76441065#0 -76441958#4 258787159#2 152627338#1 76442443#1 258787159#6 -305807458#0 76442443#8 76441067#0" departSpeed="max"  departPos="random"/>
    <trip id="29" depart="2.90" from="-258787159#1" to="-76445041#1" via="-76441164#5 76441437#0 -76441437#0 76443372#5 -76442443#8 76441385#2 -76443156#2 -76441385#3 76443587 -76441067#2 76441164#1 -76441202#0 -76441437#2 76445041#8 -76441385#1 76441234#3 -76442090#2 76441067#2 76442150 76443747#3 -76442648#2 -258787159#5 76441958#2 -362066955#4 -76441531#2 -76441482#1 76443156#3 76442018#1 76442090#2 362066955#0" departSpeed="max"  departPos="random"/>
    <trip id="30" depart="3.00" from="76443156#4" to="76441807#1" via="76441065#0 305807458#2 -152673567#1 -76442443#1 -76443747#1 -367636030#1 76441065#1 76443156#4 76441531#7 -76441164#4 -76443355#0 -76442443#9 -76442090#1 -362066955#3 -76441164#3 258787159#6 -76442079#2 -305807458#0 76441234#1 76441385#3 76443156#3 76441141#0 -76441234#1 76441234#1 -76441202#1 -305807458#0 -362066953 305807458#2 77699442 76442090#0" departSpeed="max"  departPos="random"/>
    <trip id="31" depart="3.10" from="-362066956" to="76442090#3" via="-76441807#2 76443176#2 76419221#1 76441807#1 76441531#5 -76443355#1 76441437#3 76441141#3 76442079#1 76441694#1 76442090#0 76443747#2 76443031#0 76443031#1 76443312#1 76443747#0 76442150 -76442583#4 362066955#3 76441958#0 -361431608#4 76445041#1 362066955#5 -76441202#0 -76442443#1 76443587 76445041#3 76442090#1 -76443747#0 -76441065#0" departSpeed="max"  departPos="random"/>
    <trip id="32" depart="3.20" from="76443372#5" to="-76443747#3" via="--40374 -76442079#2 -361431608#0 76441234#2 -76441531#6 -76441365#2 76419221#0 -76441385#2 -76441904 -76442471#0 -76442648#0 305807458#2 -76441807#1 -76442648#1 76443031#2 -139108139 76445041#1 -76443372#0 76443355#1 76442090#1 77699442 76441807#2 76441482#1 -76442648#2 258787159#2 76441067#3 76441141#5 76441164#4 -305807458#2 -76441787#8" departSpeed="max"  departPos="random"/>
    <trip id="33" depart="3.30" from="76443747#2" to="76443312#2" via="361431608#4 -76443355#0 -258787159#1 76443176#4 361431608#3 -76441807#0 76442090#2 -152627338#0 -362066953 76441067#0 -76441164#7 362066955#1 -76441234#1 152627338#0 76443156#0 -362066955#3 76442443#7 -76442471#2 361431608#1 76442443#4 76442443#8 76441065#2 76443176#0 -76441202#1 76441067#3 76443747#3 -76443156#3 76442443#8 -76441437#0 -76419221#0" departSpeed="max"  departPos="random"/>
    <trip id="34" depart="3.40" from="76441385#3" to="76441164#4" via="361431608#0 -76442443#10 76443156#0 76443156#4 76443312#3 152627338#0 -76445041#1 76443355#0 -152673567#1 76441437#0 76443176#1 -76441164#5 -258787159#3 76443355#0 -76419221#1 76441904 -76441531#4 76442648#1 305807458#2 76419487 258787159#1 -76441437#0 76441437#1 76441958#0 76441385#1 139108139 -76442090#0 -76441669 139108139 -76419487" departSpeed="max"  departPos="random"/>
    <trip id="35" depart="3.50" from="-76443355#2" to="76441065#1" via="76443372#6 -76442648#0 76441365#1 -76442443#9 -77699442 76441773 -76441531#7 76441065#1 -76442150 -76419221#0 -76442150 76442443#2 -76441234#3 -76419221#2 76419221#1 -76442648#0 76443372#8 -76442090#1 -362066955#4 -76442471#2 76441437#0 -152627338#1 -76442443#1 -362066955#2 300719826 76442583#4 -76442443#1 76441958#0 76441904 -76442648#2" departSpeed="max"  departPos="random"/>
    <trip id="36" depart="3.60" from="-76443747#3" to="300719826" via="-361431608#4 76443156#4 76441202#1 76443176#5 76442443#6 76442443#0 -76443355#0 76441807#2 76441202#1 -76442648#2 76442648#2 -76442648#0 76443372#0 76441773 361431608#1 76441385#1 -76442443#3 76442443#2 76441669 76441437#0 -76441385#1 76441482#0 -76442648#1 -76442090#1 -258787159#5 76443156#1 -76445041#5 -76441958#3 362066955#3 76443312#0" departSpeed="max"  departPos="random"/>
    <trip id="37" depart="3.70" from="-76441482#0" to="76441065#2" via="-40376 76442648#1 76442583#3 76442583#1 -76442648#1 -76441067#3 305807458#2 -76442079#4 76443355#2 76443312#1 -76442090#0 76441065#2 76443176#3 258787159#2 76443176#4 -258787159#5 76441365#3 -76441065#1 76441202#0 -76442443#0 -76442443#10 76443176#2 -361431608#3 76441067#2 76442648#2 305807458#2 76441164#4 367636030#0 -305807458#0 76441694#1" departSpeed="max"  departPos="random"/>
    <trip id="38" depart="3.80" from="-76443372#4" to="-305807458#2" via="76443156#3 76419487 -76441067#1 -76441807#1 76443176#5 362066955#4 76441437#4 -76441531#4 76445041#2 152627338#0 -76442443#0 76441234#3 361431608#3 76441807#3 76441787#0 76441437#0 76441141#2 76441787#0 76441067#1 -76443261 76443372#8 76441958#1 -76442443#9 76443031#2 -305807458#0 -362066955#5 -152627338#1 76443372#6 76443156#0 -76441234#0" departSpeed="max"  departPos="random"/>
    <trip id="39" depart="3.90" from="305807458#2" to="76441904" via="-76441787#1 -76441787#4 152673567#1 76443747#3 76442090#3 -76441065#0 -76441531#2 76442443#5 -362066955#0 76441141#0 --40374 -76442583#1 76445041#4 76442018#1 -76441807#1 76443176#5 -76441164#5 76443372#6 -76442018#0 305807458#2 76443176#5 -76441164#7 -361431608#1 76443031#0 -76441385#0 76443372#4 76445041#3 -76445041#5 76441164#2 --40374" departSpeed="max"  departPos="random"/>
    <trip id="40" depart="4.00" from="-76443372#6" to="-76442443#10" via="76441365#1 -76442018#0 76441141#4 -76443312#1 -76445041#3 76442090#1 76441437#0 -76442471#2 76441787#5 76445041#5 76441365#2 -76443372#6 -76443156#0 76443176#1 76443372#7 -76443372#6 -76441385#2 -76445041#2 152673567#0 -76442583#2 -76445041#2 -76441202#0 -76442090#0 -361431608#4 361431608#1 -76442079#2 76443176#3 76442150 76441141#5 76441437#0" departSpeed="max"  departPos="random"/>
    <trip id="41" depart="4.10" from="-76441787#2" to="76443372#0" via="-76445041#0 361431608#1 76441437#0 -76441437#0 -76441067#2 -361431608#4 -76419221#0 76441202#0 -76442583#0 362066956 76441067#0 -76419221#0 76442648#2 76443355#3 76442150 77699442 -362066955#4 300719826 258787159#5 152627338#0 76441067#0 --40374 76443031#1 152673567#0 76441385#2 76441067#3 76441365#1 76445041#0 76441164#4 -76441234#3" departSpeed="max"  departPos="random"/>
    <trip id="42" depart="4.20" from="76445041#0" to="361431608#0" via="-76441807#1 -76442471#0 -76442648#1 -76441437#0 -76445041#0 76443156#0 -258787159#4 76443156#4 76442443#5 -76441385#3 -362066956 76441141#0 76443372#2 -76441787#1 76443312#2 -76442443#2 76441067#2 -361431608#0 -76442018#0 -76441531#6 -76441437#3 76441807#2 -362066955#5 76441365#2 -76419221#0 -76441234#1 76443312#1 76442018#0 -76441385#2 -76441773" departSpeed="max"  departPos="random"/>
    <trip id="43" depart="4.30" from="-76443355#0" to="-76442471#3" via="76442443#4 -76443156#2 -76441234#0 76441141#1 -76442583#4 76441807#3 -76441787#5 -76441164#3 76441385#0 76443031#0 76441067#1 76441437#0 -258787159#1 -76442443#4 -305807458#2 -305807458#0 --40374 -76443747#3 76443355#3 76442648#1 -76441065#0 76441787#8 -76442090#3 76441067#3 76441067#2 -76441526 -367636030#1 -76441234#3 -76419221#0 76442150" departSpeed="max"  departPos="random"/>
    <trip id="44" depart="4.40" from="362066955#0" to="-76441065#1" via="-76441385#0 361431608#2 152673567#0 -76443355#0 -76442443#2 76443747#0 -305807458#2 76441385#3 76441067#2 76443031#2 -76441067#0 -76441904 76441807#2 -76442443#0 258787159#2 -76442090#0 76441787#6 76441365#1 -76441787#0 -76443372#4 -367636030#1 76443176#4 -76441807#0 76441141#2 76441067#3 -76441385#2 -76441234#0 76443355#2 305807458#0 76443372#6" departSpeed="max"  departPos="random"/>
    <trip id="45" depart="4.50" from="76442443#0" to="-321748518" via="-76443355#0 76441437#0 76441141#3 76443747#3 76442090#0 76443031#0 76443176#5 -76443355#1 76443355#0 76441385#1 76443156#1 300719826 -361431608#3 76443355#3 -76441365#3 76445041#0 -362066955#1 -305807458#2 76443372#2 -362066954 76441787#7 -76442018#1 -362066955#2 76442443#3 76441482#1 -258787159#4 -76442079#0 -76441807#1 76443176#0 76442090#2" departSpeed="max"  departPos="random"/>
    <trip id="46" depart="4.60" from="76442443#2" to="-76443372#2" via="76441482#2 -76441437#0 76441437#0 -76442648#2 76441958#3 76442018#0 76442583#1 -76442443#2 76441141#5 -305807458#2 76441958#1 -76442090#2 305807458#2 -76442443#0 76441787#8 -76442090#0 152627338#0 -76443372#1 -76442648#1 152673567#0 -76443747#0 -76443156#0 -76443747#0 76419221#2 -76419487 -305807458#2 76442648#2 76442443#10 76443747#3 76443747#1" departSpeed="max"  departPos="random"/>
    <trip id="47" depart="4.70" from="-76442018#0" to="-76442583#1" via="-76441958#1 76442583#3 76442443#6 76419487 76442090#3 -305807458#2 -76441669 -76442150 76441385#1 -152673567#0 258787159#1 76441787#6 76441141#1 76441385#0 76442090#2 367636030#0 76442079#0 -76443372#4 76441531#2 -76442471#1 -76441067#1 -76443355#2 76441065#2 -76443355#2 76442090#0 -361431608#4 258787159#2 -76442443#6 -152673567#0 258787159#2" departSpeed="max"  departPos="random"/>
    <trip id="48" depart="4.80" from="-76443747#2" to="-76441067#0" via="76442648#0 -76442090#1 76441141#2 -321748518 362066955#3 -76445041#4 258787159#5 76442150 -76442443#1 76442443#0 -76441164#7 76442443#2 -76442090#0 77699442 76442090#0 --40374 76441141#1 76441495#2 76441385#1 -76445041#0 -76441694#1 -76443312#2 -76441531#6 -362066953 76441164#6 -152673567#0 76441164#6 -76441787#5 76443747#1 -152627338#0" departSpeed="max"  departPos="random"/>
    <trip id="49" depart="4.90" from="-76442079#3" to="76441067#3" via="-76445041#8 -76441164#0 -76441385#1 76441437#2 -76441807#0 76441067#2 76441787#5 76441067#2 76443031#0 -76443747#1 76445041#2 -76441164#0 76441385#1 76443747#2 -76419221#0 -362066955#0 76441385#1 -76441365#3 -76442090#2 76443355#2 76441065#1 76441437#3 -76441385#2 -76441437#0 76441787#9 -139108139 76441531#4 -76441437#0 -76442443#2 -76442443#0" departSpeed="max"  departPos="random"/>
    <trip id="50" depart="5.00" from="-76441787#1" to="76443747#3" via="76441065#0 -258787159#5 76441958#4 -76442583#0 -76443747#3 76442443#2 76442018#0 76443372#0 -321748518 -139108139 -76441067#2 76445041#4 -76443747#0 258787159#1 -76441437#4 76441385#0 361431608#2 76442079#2 76419221#1 76441164#6 76441958#3 -258787159#1 -40376 76441067#3 361431608#3 -76442079#4 -305807458#0 76442090#3 76442018#0 -76441067#1" departSpeed="max"  departPos="random"/>
    <trip id="51" depart="5.10" from="76441164#1" to="76443312#0" via="76443031#2 -76441787#1 -76441202#1 -76442648#2 -305807458#0 -76442090#0 -76442079#3 -76441437#0 76443156#4 76441773 152673567#0 -76443587 76443031#1 -362066955#0 -76442443#1 76442471#1 76443355#0 -76441164#5 76441065#2 -76445041#4 76445041#3 -362066955#3 -76443156#1 76443372#6 -76441787#3 -76441385#3 -76442583#3 -152673567#0 76442090#2 -76442443#8" departSpeed="max"  departPos="random"/>
    <trip id="52" depart="5.20" from="-76441365#3" to="-76441065#0" via="76441164#4 76442079#1 76442583#2 -152673567#1 76441141#2 76441385#0 -305807458#2 76443372#6 -362066955#0 -76441526 361431608#1 76441067#0 258787159#1 361431608#0 -362066955#2 76419487 -76442443#6 361431608#2 76441067#1 76443372#2 76442090#2 362066955#2 76441141#1 76419487 -76443312#1 -76443747#1 76441531#6 -76443372#0 -361431608#0 -305807458#2" departSpeed="max"  departPos="random"/>
    <trip id="53" depart="5.30" from="76441807#2" to="76441482#2" via="-258787159#1 -76419487 -76441787#1 -76443747#1 -76445041#2 -361431608#0 -76441773 -76441807#0 -361431608#3 -76441202#1 -258787159#4 76441669 -76419487 -76442079#2 --40374 76441531#2 -76443372#5 76442583#3 76443372#8 76441531#1 76441065#2 76441141#3 -76442443#4 76441526 -76445041#7 -152627338#0 -76443372#8 76441164#4 76443355#0 76441385#1" departSpeed="max"  departPos="random"/>
    <trip id="54" depart="5.40" from="-76441669" to="76443355#1" via="-76445041#5 76441385#3 76441067#0 -362066955#1 76442471#2 -76441526 76442443#4 76441141#1 -76442648#1 76441164#8 76441531#0 362066953 -76443747#0 -76442090#1 -76445041#8 76443747#3 76442471#2 76443747#0 77699442 76442443#3 76441958#1 76443031#0 -76442443#8 76443747#1 -76442583#0 -76443747#0 76443355#3 -305807458#0 -305807458#0 76441437#0" departSpeed="max"  departPos="random"/>
    <trip id="55" depart="5.50" from="-76443312#2" to="-76442443#9" via="258787159#6 -76441234#1 76441495#0 76443747#2 76442443#2 152673567#1 --40374 76443355#2 -76442090#0 76442079#4 -76441694#1 -258787159#2 305807458#0 -76443747#3 76442648#1 -76441495#2 -76445041#5 -152627338#0 76441141#2 258787159#1 -76442443#1 -76419221#0 76441141#0 -305807458#2 76443156#2 76442079#0 -76442079#1 152673567#1 76441365#2 76443156#2" departSpeed="max"  departPos="random"/>
    <trip id="56" depart="5.60" from="76442443#0" to="76441141#1" via="76442583#4 76441234#1 361431608#4 76442648#0 76443031#0 -362066955#0 -362066955#5 76441807#1 -76443372#7 -76441787#5 -76441787#6 -76442443#6 362066956 -76441067#0 76442648#0 305807458#2 76443372#2 -76443355#1 76441669 362066955#3 -76445041#3 -76442090#1 76441482#2 152627338#1 -76441773 362066955#0 76441694#1 76442090#1 76441385#3 -76442443#9" departSpeed="max"  departPos="random"/>
    <trip id="57" depart="5.70" from="-76443156#1" to="76443176#2" via="-76441437#0 -76443156#1 -258787159#1 -76441065#1 -76445041#0 76443176#5 76441787#5 -76443587 76443176#0 -76441807#0 76441234#0 76441164#8 -76441495#2 -76442443#0 -76442090#2 -76441787#8 76419487 361431608#4 76442583#4 -76442443#3 152627338#0 76443031#0 76442443#6 -362066955#4 76441234#3 -76441787#6 -76441067#1 76441067#0 76419221#2 76441141#1" departSpeed="max"  departPos="random"/>
    <trip id="58" depart="5.80" from="76441531#6" to="362066955#0" via="-76443587 -76441526 -76445041#3 -76442150 -76441787#5 76442090#1 76441958#2 76441067#2 -76441787#5 76441787#8 76441531#1 -77699442 -76441437#3 -76441164#4 76441067#3 76442090#1 76441141#2 76441385#3 76442090#3 76443312#3 -76442443#3 -76442648#2 -76442443#2 -76442443#0 76443031#0 76441164#0 -76441065#1 -76441385#0 -76442648#1 76441531#1" departSpeed="max"  departPos="random"/>
    <trip id="59" depart="5.90" from="76441385#2" to="76442079#0" via="-76441773 -76442079#0 -76442443#1 -258787159#4 -76442443#6 76441807#3 76443176#1 -361431608#3 -76442648#0 76441669 -76442443#3 -76441202#1 362066955#2 -76442443#3 76443312#2 139108139 -305807458#2 -76442090#3 -76441437#0 76443372#2 -362066955#2 -76441958#2 -76442090#0 --40374 76442443#1 -76442583#2 258787159#2 -76445041#5 76443372#3 -258787159#1" departSpeed="max"  departPos="random"/>
    <trip id="60" depart="6.00" from="-258787159#3" to="-76441365#0" via="76443587 77699442 -76441787#5 76443312#2 -76445041#7 76441067#3 305807458#0 76442443#9 76441164#0 -76443747#2 -76442443#2 76443372#7 76441787#6 76441141#6 76443031#0 -76441164#3 258787159#4 76441234#3 76441531#1 362066954 -76441787#3 305807458#2 -76441807#1 76441773 361431608#1 76441067#1 76443031#1 -76441694#1 76443747#0 76442090#3" departSpeed="max"  departPos="random"/>
    <trip id="61" depart="6.10" from="76443176#3" to="-76442018#0" via="76442443#2 --40374 -76442443#3 -258787159#6 -76441787#5 -321748518 76443747#2 258787159#6 76442090#1 76442583#4 -76443747#2 76441234#2 -77699442 76441067#3 76442443#7 -152627338#1 76441202#1 -76441385#0 -76441437#4 76443747#0 76441437#0 -76441787#5 -76441531#1 76443031#1 -76441365#1 76441385#0 -362066955#0 76441365#1 76441958#0 76441385#3" departSpeed="max"  departPos="random"/>
    <trip id="62" depart="6.20" from="-76441958#1" to="-76419221#0" via="-76441807#0 -76441787#9 76441202#1 76443747#3 -76419221#0 -76441164#1 76441141#4 76442583#4 -76441234#0 76443176#3 -76445041#0 -76442443#0 76442583#4 -76441482#0 76442443#6 -362066955#3 -362066954 -76442648#1 76442443#2 -76445041#8 -76441067#0 -76441495#2 76441067#0 152673567#0 76443747#3 -76419221#0 76441787#6 -76442443#8 76441065#1 76441787#4" departSpeed="max"  departPos="random"/>
    <trip id="63" depart="6.30" from="76441958#2" to="-76441437#0" via="76442090#2 76442583#3 -305807458#0 -76442079#1 76443355#0 -76441385#2 -76441437#0 -305807458#2 258787159#6 -76441365#3 152627338#0 76441164#2 -76441531#6 76441365#1 -76441531#5 -76443261 76445041#0 76442648#0 -152627338#0 76441787#1 -76443747#3 -76441531#4 76441526 361431608#0 76442090#2 76443355#3 258787159#4 76443031#2 -76442443#4 -76443156#3" departSpeed="max"  departPos="random"/>