<?xml version="1.0"?>
<!-- generated on 2017-03-03 23:44:03.355008 by $Id: randomTrips.py 19495 2015-12-02 12:36:28Z behrisch $
  options: -n ottawa.net.xml <doubleminus>r ottawa.750.routes.xml -a ottawa.750.randomTrips.xml <doubleminus>begin 0 <doubleminus>end 75.00 <doubleminus>period 0.1 <doubleminus>min-distance 500 <doubleminus>fringe-factor 1 -L <doubleminus>intermediate 30 -l <doubleminus>trip-attributes=departSpeed="max"  departPos="random" -o ottawa.750.trips.xml <doubleminus>weights-prefix ottawa
-->
<trips>
    <trip id="0" depart="0.00" from="-258787159#0" to="76441787#6" via="258787159#7 76441694#2 305807458#0 76441787#9 -76441787#8 76419221#0 -305807458#1 305807458#2 361431608#4 258787159#6 305807458#2 76441787#9 362066955#0 -76442150 76419221#0 76441437#1 -76443372#3 76419221#2 -76445041#3 -76441065#0 76442648#0 -258787159#7 -76441807#1 76443176#5 -76443747#1 76442443#0 76441385#1 -76419221#2 76441787#4 258787159#7" departSpeed="max"  departPos="random"/>
    <trip id="1" depart="0.10" from="76441787#10" to="258787159#6" via="-76441694#2 76442090#2 76443747#1 76441817 362066956#0 76442583#4 76441482#2 76441787#1 -76442443#1 76442150 76441164#2 76442079#3 76441164#6 76441437#2 76445041#8 76441495#1 -76441234#3 -321748518 -76441437#3 -76443382 76441787#8 -76442443#0 -76441065#0 -76442079#2 -76441787#7 76443312#1 76441958#1 -362066956#1 76441787#8 76441065#0" departSpeed="max"  departPos="random"/>
    <trip id="2" depart="0.20" from="-76441437#2" to="-76441065#0" via="-76442079#5 76419221#2 76442443#9 -76443312#1 76441141#2 76419221#2 -362066956#4 -76419221#2 -76441482#1 -76441495#2 -258787159#6 -362066956#0 -76443372#7 76442471#2 -76443372#1 152673567#1 76441958#0 -76419221#2 152627338#0 -258787159#2 76441234#1 76419221#2 -76441164#8 76441787#9 76441495#1 76441787#7 -76442443#10 76441531#0 -76443355#1 -362066955#1" departSpeed="max"  departPos="random"/>
    <trip id="3" depart="0.30" from="76441958#1" to="-305807458#2" via="-76441437#3 258787159#6 76441531#4 -76441385#3 76441787#2 -258787159#6 -305807458#1 76442648#2 -76441495#0 -76441787#1 305807458#2 -76441202#0 362066956#1 76441437#1 76442443#3 258787159#0 -76441694#1 76441787#7 -76441958#3 -76441202#0 -76442443#10 76442583#3 76443747#1 76419221#2 -361431608#2 76441067#2 -76441065#1 -76441787#7 76441531#2 258787159#7" departSpeed="max"  departPos="random"/>
    <trip id="4" depart="0.40" from="258787159#7" to="258787159#3" via="76441787#7 362066956#4 76441531#6 -258787159#6 76441787#0 -76441787#7 -76442471#3 -305807458#2 -258787159#5 362066955#0 -76442079#5 258787159#4 76442583#2 76442471#0 76441164#5 -76443312#1 76442079#0 76441787#0 -76442018#1 76443312#1 76442079#5 76442583#2 -76441764 258787159#2 -258787159#3 76442648#0 76419221#2 76441495#2 76441385#2 76442443#7" departSpeed="max"  departPos="random"/>
    <trip id="5" depart="0.50" from="-76445041#6" to="76441787#6" via="-76445041#7 76441531#7 -76441365#1 -76441365#0 -76419221#2 -76441067#2 76441437#0 76441365#3 361431608#3 76441787#7 76441437#2 305807458#2 76442443#7 -76442443#3 -76442583#1 76443747#0 76441141#2 -76443747#0 76441787#7 76441067#1 -76442150 76441531#3 -258787159#7 -76441365#0 -258787159#0 76419221#0 -76442246 76443747#3 139108139 76441065#2" departSpeed="max"  departPos="random"/>
    <trip id="6" depart="0.60" from="-258787159#2" to="76441065#2" via="76441904 76441787#3 -76441495#0 -76443747#0 -76441164#8 -76443372#8 -76441787#7 -76441164#0 -76443372#7 -76441531#0 -76442443#8 76441787#6 -76419221#2 76442471#2 76441164#2 -76441787#6 258787159#7 -76443747#0 76443312#3 -76441787#8 76441164#3 76441141#2 76441065#0 -76441787#3 76442443#6 258787159#0 305807458#2 76441764 -76443372#0 -305807458#2" departSpeed="max"  departPos="random"/>
    <trip id="7" depart="0.70" from="-76443372#0" to="-76441065#0" via="-76419221#2 76441807#2 76441787#9 258787159#1 -76445041#8 76442090#3 -76441385#1 362066955#0 76443176#0 -76443372#6 -76445041#3 -76442443#1 -76441904 -76441234#0 -76442090#1 76441787#10 76441437#1 305807458#1 76419221#1 -362066956#2 -76441787#9 -76442443#10 -76441787#3 -76442246 -76442481 -76441065#0 76443156#3 76442079#2 -76443747#3 76441787#1" departSpeed="max"  departPos="random"/>
    <trip id="8" depart="0.80" from="76442648#0" to="258787159#3" via="76441787#6 -76441365#2 -76441482#0 76442079#0 76443156#4 76441164#5 258787159#4 -76441787#10 -258787159#1 -76441495#0 -76442079#3 76441787#2 76441531#6 76443355#0 76443156#3 258787159#6 -76441787#9 -305807458#1 -76442090#0 -258787159#7 76443176#0 -76442246 76445041#5 76441787#0 -76441365#2 -76443312#3 76441526 76442443#10 76441694#0 76419221#0" departSpeed="max"  departPos="random"/>
    <trip id="9" depart="0.90" from="-76441531#7" to="362066956#4" via="-76441234#1 76441164#6 76441531#4 76442583#1 76441065#0 76441531#3 76441531#5 -76443372#4 -76442471#0 76442443#4 76441787#7 -362066956#3 76443176#3 -76441787#3 300719826 300719826 76442018#0 362066956#2 76441482#0 -362066955#4 76441234#1 -76442583#3 362066955#4 76442471#2 -76441164#3 76419221#2 258787159#6 -76419221#2 76443355#1 76441787#7" departSpeed="max"  departPos="random"/>
    <trip id="10" depart="1.00" from="-76441437#3" to="76441065#2" via="258787159#0 76441787#2 -76441495#2 -76441164#4 -76445041#6 76442443#1 76441787#7 -76442079#1 -76441202#1 -76443372#3 76442583#4 -76441787#5 76419221#1 76442018#1 258787159#6 -76441531#4 305807458#2 -76441787#6 76424480 -362066955#4 76441141#4 76441787#5 -76441787#7 76441065#1 -76441164#1 -76441531#2 76441065#1 152627338#0 76441141#6 305807458#2" departSpeed="max"  departPos="random"/>
    <trip id="11" depart="1.10" from="77699442" to="305807458#2" via="76441067#0 76441694#1 362066956#0 76442443#8 76441787#2 76442079#3 305807458#2 -76441202#2 76441141#4 76441531#4 -76441787#1 76442443#0 76441787#5 305807458#2 -76441787#10 -76442150 -76441904 -76441202#1 258787159#3 305807458#2 76441531#7 305807458#2 -76419221#2 76441958#0 76442090#2 -76443372#7 76441764 362066956#1 76441787#3 -76443355#1" departSpeed="max"  departPos="random"/>
    <trip id="12" depart="1.20" from="76443355#2" to="76419221#2" via="-258787159#6 -76443372#5 -76419221#2 -361431608#2 -76441787#4 362066956#0 362066956#4 258787159#6 76441234#1 76441202#2 -76441437#0 -76441787#7 362066955#4 -76441787#0 362066956#4 -76441385#2 76441787#0 -305807458#1 -76441065#0 -76441067#3 -76442018#0 76445041#2 -362066956#4 -76441817 76441787#4 76441787#0 -76441787#0 -76441164#6 362066956#2 76441531#3" departSpeed="max"  departPos="random"/>
    <trip id="13" depart="1.30" from="258787159#7" to="-258787159#6" via="362066956#3 -76441787#10 258787159#5 76441065#1 -76442648#0 -76419221#2 152627338#1 76441385#0 76419221#2 -76441437#3 362066956#0 -76441787#7 -76441787#0 -76441787#10 76443587 76441065#0 362066956#3 76441495#1 -76441787#5 76442443#4 362066955#5 -258787159#6 76419221#2 -362066956#3 -76442471#0 -77699442 76441787#0 258787159#1 -76441807#0 -76442471#2" departSpeed="max"  departPos="random"/>
    <trip id="14" depart="1.40" from="76443031#2" to="76441787#6" via="-76441164#0 -361431608#2 76441764 -76419221#1 76441482#2 -139108139 76441531#3 76441065#0 76419221#2 -76419221#2 -362066956#0 76445041#6 -76441787#7 76419221#2 -76441164#7 362066956#1 -76441904 76442648#2 -76442443#8 76441526 76441365#3 -76443372#4 362066956#3 76441164#2 76441164#6 258787159#6 258787159#6 -76419221#2 -361431608#1 -361431608#2" departSpeed="max"  departPos="random"/>
    <trip id="15" depart="1.50" from="76445041#6" to="-76419221#2" via="76443372#1 -76441495#1 361431608#3 76419221#2 76441787#3 -76441787#3 76443312#3 361431608#3 -76442471#0 76441531#7 76442648#1 -76442090#0 -76441437#4 -76441065#1 76441531#2 258787159#6 76441817 -76441495#2 -76441958#0 76441787#2 -76441065#1 258787159#6 76445041#3 76441385#0 76441164#7 76441531#7 361431608#2 -76441787#6 76441495#2 76441531#7" departSpeed="max"  departPos="random"/>
    <trip id="16" depart="1.60" from="76442079#5" to="-321748518" via="76442079#3 -76445041#6 -258787159#6 76443156#3 -76441787#4 -258787159#1 -76441787#5 76443312#1 76441787#0 -76443355#0 76443312#1 -76443355#3 76442090#3 -76441787#3 76441787#4 76441787#6 -76443747#2 -76419221#0 -76441234#3 76441141#2 76443747#2 -76442471#2 305807458#0 -76441787#9 76441141#4 76441694#2 76419221#2 -76441787#0 76443372#8 76443176#3" departSpeed="max"  departPos="random"/>
    <trip id="17" depart="1.70" from="-76442648#0" to="362066956#4" via="76441531#1 -76443156#1 76441787#9 -76441958#3 76442090#3 76441531#1 -76441234#1 -76441787#0 -76441787#5 76441787#7 76442150 -76441958#3 -152627338#0 -76443372#2 -305807458#0 -76442648#2 76441141#6 76441531#7 362066955#4 -76441065#0 -76441787#7 -76443372#0 -76441958#4 76441787#7 76441067#0 258787159#0 76441482#0 76443355#3 76443355#0 -305807458#0" departSpeed="max"  departPos="random"/>
    <trip id="18" depart="1.80" from="76441787#9" to="-76441787#6" via="76445041#4 76441531#7 76441787#3 76442471#4 76419221#2 258787159#6 -258787159#3 -362066956#4 76441141#4 -76441234#3 -76443587 258787159#0 76442150 76441787#7 -76441787#2 76442648#1 76441385#2 -76443372#0 76441365#3 76419221#0 -76442648#2 76443156#1 -362066955#3 -76419221#2 76441164#7 76441531#1 76441065#2 76441531#1 300719826 76443372#5" departSpeed="max"  departPos="random"/>
    <trip id="19" depart="1.90" from="76419221#2" to="76441787#6" via="76442079#0 -305807458#0 -76442443#1 76441787#3 76441495#0 76441067#1 76442090#3 76441065#2 76443031#0 258787159#3 76445041#2 -76442443#5 76441482#0 305807458#2 76443156#0 -362066956#2 -76419221#1 76419221#2 -76419221#1 362066956#4 258787159#5 -76441531#2 -305807458#1 -76443312#2 -152627338#0 -258787159#6 -76441958#5 -321748518 76441787#9 76441365#2" departSpeed="max"  departPos="random"/>
    <trip id="20" depart="2.00" from="258787159#4" to="-321748518" via="76442648#1 -76442079#1 -76441787#9 -76442583#0 76441787#2 76419221#1 -76441787#7 76441234#2 76441787#0 76441531#4 -362066956#3 76442471#0 76442583#2 -76441787#5 76441365#3 76443312#0 362066956#0 -362066955#4 76441164#4 -76441958#3 -305807458#1 -76419487 76441067#3 362066956#0 -258787159#0 -76441365#1 -76441437#2 -76442090#2 258787159#6 -362066955#3" departSpeed="max"  departPos="random"/>
    <trip id="21" depart="2.10" from="258787159#3" to="-76419221#2" via="76443747#0 258787159#6 76441787#7 76441787#2 76442443#2 -76441787#2 76441787#1 76445041#8 76441141#6 76441807#2 -76441067#3 -76441065#0 76441787#9 -76441437#2 76445041#5 -76419487 -76441807#0 76443747#1 -76441669 76442018#0 76441065#1 76441141#0 -76441531#3 305807458#2 -139108139 76441531#3 -76419221#2 76441531#7 76441065#1 -76441526" departSpeed="max"  departPos="random"/>
    <trip id="22" depart="2.20" from="-77699442" to="305807458#2" via="300719826 76441531#4 -76441164#0 -76443747#0 -76443587 76443312#1 -76443312#2 -76443747#2 -76419221#2 -152673567#1 -76442443#7 258787159#2 139108139 76441531#6 76441531#5 -76442443#10 -76441234#2 -76419221#2 76441531#7 76441531#5 305807458#2 -258787159#6 258787159#6 76441141#5 76442960 -76441787#9 76441787#9 76441787#7 -305807458#0 -77699442" departSpeed="max"  departPos="random"/>
    <trip id="23" depart="2.30" from="76443747#0" to="-76419221#2" via="152627338#1 -76445041#4 -76443312#2 76442471#0 258787159#6 -362066955#4 -76445041#2 305807458#2 -76441787#7 76441531#3 -76441787#0 76441065#0 76441141#6 -76441958#5 76441482#2 76441787#2 -76442583#1 -76442481 76441787#7 -76442583#3 -76442443#6 258787159#4 -76419221#1 -76441787#8 -76441958#3 -76441065#0 -305807458#0 -76445041#8 76441067#1 76441787#6" departSpeed="max"  departPos="random"/>
    <trip id="24" depart="2.40" from="-76441067#1" to="-76441787#6" via="-76442471#1 76442443#10 76442648#1 361431608#4 76442583#3 -76442079#2 -76441787#7 -76419221#2 -258787159#6 76442648#1 305807458#2 -361431608#4 -76441787#7 -76442648#0 76443747#0 76443355#0 -152627338#1 76441164#3 -258787159#6 76441164#8 76443747#2 -76445041#0 76441531#6 -76419221#0 362066955#1 -76441787#0 -362066956#2 76441365#2 -76441495#2 76441065#1" departSpeed="max"  departPos="random"/>
    <trip id="25" depart="2.50" from="-76441202#2" to="-76441807#1" via="362066956#1 -76443382 76441065#0 152673567#1 -76443355#2 76445041#3 -76443372#7 -76441807#1 -76441694#0 76442443#3 76442090#1 -76442648#1 -76442090#2 76445041#0 76441482#0 -152627338#0 -76442090#3 76442443#10 -76441385#3 -76442648#2 -76442583#2 -76441234#2 300719826 76441787#0 -258787159#6 -76442079#4 76443355#0 76441694#1 -76442443#2 -76441787#1" departSpeed="max"  departPos="random"/>
    <trip id="26" depart="2.60" from="361431608#1" to="-321748518" via="76443031#0 76441787#4 -76443312#2 76443587 367636030#0 -76419221#0 76441141#0 -76443372#1 76441531#7 258787159#6 362066956#4 362066956#0 -321748518 -76419221#2 -76441385#3 76441526 -76441787#7 -76442443#10 -76445041#7 76445041#1 76441787#4 -305807458#1 76441787#1 -258787159#0 76441437#2 -258787159#6 -76441958#0 76442648#0 76441787#4 76441531#7" departSpeed="max"  departPos="random"/>
    <trip id="27" depart="2.70" from="-76442018#0" to="-76419221#2" via="-258787159#6 -76442079#4 -76441065#0 -76442443#6 -76441958#5 76442018#0 258787159#1 305807458#2 76443355#0 76442150 258787159#2 76441234#1 -362066955#5 76441787#9 258787159#3 -305807458#0 -76441787#2 -152627338#1 76441067#1 -76441164#7 76441958#2 -76441164#7 76441787#9 76441065#0 362066956#2 76445041#5 -76419487 76443372#1 -258787159#6 76441787#7" departSpeed="max"  departPos="random"/>
    <trip id="28" depart="2.80" from="-76445041#8" to="258787159#6" via="258787159#2 -76441164#2 -76442150 362066956#3 76442443#0 -76441482#1 76441531#7 -76441437#3 -76445041#2 305807458#2 76441067#1 258787159#4 76441787#0 76419221#2 76441065#0 76441531#4 76441164#7 258787159#6 -76441787#4 76441787#1 -76443312#0 76443587 76441164#0 -76441531#7 -76441787#0 -76441067#1 -76441482#1 76441385#3 305807458#2 76443355#0" departSpeed="max"  departPos="random"/>
    <trip id="29" depart="2.90" from="76441531#2" to="76419221#2" via="-76419221#2 76443156#4 -76441787#1 -76442079#5 76441065#2 -76441807#3 -305807458#2 -362066956#2 -321748518 76442471#1 76443212 362066956#0 76442090#3 76441065#0 -76441787#2 -76441065#1 76441807#3 76442079#5 76443747#1 -76441764 76441495#2 -76441694#2 305807458#2 -76441065#1 76443372#1 -76441787#3 76441164#8 -76441817 -76441807#2 258787159#3" departSpeed="max"  departPos="random"/>
    <trip id="30" depart="3.00" from="76441164#7" to="258787159#6" via="258787159#1 76441065#2 76443372#3 76443031#2 76441958#5 76441817 -362066956#1 258787159#6 -76442443#10 -76441807#3 76443176#3 76441437#2 76441164#6 76441065#0 -76442471#3 76441531#7 -76441234#1 76441787#2 -76443156#1 -76443312#1 76443372#1 -362066955#2 76442443#10 258787159#4 362066956#2 -76441787#2 -76441234#0 -76441437#0 -76441958#3 -76443747#1" departSpeed="max"  departPos="random"/>
    <trip id="31" depart="3.10" from="-362066956#3" to="258787159#3" via="76441141#4 305807458#1 -362066955#5 -76442443#1 362066956#2 -76443372#2 76442583#3 -76441067#3 76441164#7 76419221#1 76443312#0 -76441787#0 -258787159#4 76445041#4 -76443747#1 -76441787#7 -76441437#0 -305807458#0 76443355#0 -76419221#2 76442583#3 -76441202#1 76441067#2 -76443372#4 -76419221#2 -76441164#2 -76441764 -76442583#1 361431608#1 -76441202#1" departSpeed="max"  departPos="random"/>
    <trip id="32" depart="3.20" from="76441787#3" to="76419221#2" via="-258787159#3 -76441234#3 -76443747#0 76442583#1 76441787#6 -305807458#0 -76419221#2 76442583#3 -76441787#7 76442018#0 -76419221#1 76441531#5 -76441067#1 -258787159#1 -76441437#1 362066956#2 76441787#10 76441531#6 -76441807#0 258787159#5 -362066956#2 -362066956#0 76442583#0 76442583#3 258787159#7 76441958#0 -76441065#0 -76441787#10 -321748518 76441531#1" departSpeed="max"  departPos="random"/>
    <trip id="33" depart="3.30" from="76441437#3" to="258787159#3" via="-76419487 -76441787#0 76443176#5 76441787#5 -76441787#10 76442960 258787159#2 76441787#10 258787159#6 -362066956#1 76441531#5 76441065#0 76441164#3 -258787159#5 -76442443#8 76442471#4 -305807458#1 305807458#2 76441065#1 -361431608#2 76443176#2 -76443312#3 152673567#0 76441385#3 76443372#4 76441531#1 -77699442 76441694#2 76442079#5 -76441495#0" departSpeed="max"  departPos="random"/>
    <trip id="34" depart="3.40" from="362066956#4" to="362066956#4" via="76442090#3 76441531#5 76442471#3 -76442471#4 -361431608#2 -76442090#2 -76443372#7 76441958#1 -258787159#3 305807458#1 -258787159#6 305807458#1 -76441787#4 -76445041#5 76441065#2 -362066956#3 -76442583#1 -76442443#3 361431608#3 -76443747#3 258787159#1 76442648#1 -76443382 305807458#2 76441787#10 -76442079#5 -76442090#0 76443355#1 76441787#6 -76441202#0" departSpeed="max"  departPos="random"/>
    <trip id="35" depart="3.50" from="-76442090#3" to="-76441787#6" via="76443372#0 -362066956#3 -76441365#1 -258787159#6 -76441437#3 -305807458#0 76441164#0 -76441787#0 -258787159#6 -76441787#3 -258787159#6 76445041#2 362066956#1 76441065#0 76441164#7 -76443372#5 76441958#2 76443312#1 76441787#3 -76419221#1 -258787159#0 -76441067#2 -362066956#2 -258787159#6 -76443156#2 76442443#2 76442079#3 -76441065#0 -76441065#0 -258787159#6" departSpeed="max"  departPos="random"/>
    <trip id="36" depart="3.60" from="258787159#4" to="-258787159#3" via="305807458#2 76442443#0 362066956#2 76443372#2 -76441202#0 -76419221#2 76419221#2 -362066956#1 362066956#4 76442443#5 76445041#4 -258787159#4 76441437#4 305807458#0 76441694#1 76441694#1 76445041#7 -76441385#0 76441495#2 362066956#1 76419221#2 76441437#2 152627338#1 -76441495#1 76445041#3 76442079#0 76441787#2 -76441482#1 362066956#2 76419221#2" departSpeed="max"  departPos="random"/>
    <trip id="37" depart="3.70" from="-76441067#1" to="76441065#2" via="-76445041#4 76441164#6 -258787159#2 76441958#5 -76441495#2 76442018#0 76441787#3 -76443312#0 -258787159#4 -258787159#3 76441531#2 -76419221#2 76442471#4 -76443747#0 258787159#6 76443031#2 -258787159#5 76441141#0 -76441065#0 76441787#0 76442150 -362066955#3 -258787159#1 -76443156#3 76441531#7 -76441787#4 76442443#1 305807458#0 76419221#2 76442648#2" departSpeed="max"  departPos="random"/>
    <trip id="38" depart="3.80" from="-258787159#1" to="-258787159#3" via="76443382 76442443#9 -76441164#6 76441764 300719826 -76441787#0 76442090#2 -76441202#2 305807458#2 76443747#1 -76441365#2 -76441437#2 367636030#0 152627338#0 -361431608#2 76441531#2 -76443261 -76443382 -258787159#0 362066956#1 305807458#2 76442471#2 76441531#2 -76441202#2 -76443372#3 76443372#6 258787159#4 -76441787#7 76441787#8 76441787#0" departSpeed="max"  departPos="random"/>
    <trip id="39" depart="3.90" from="76441365#0" to="-258787159#3" via="258787159#4 76442443#9 76442018#1 -258787159#1 76441531#1 -76441365#2 76441234#1 -76441065#1 76441482#2 76441234#2 -76443312#3 -362066955#0 76441531#6 -76419221#2 305807458#2 76441531#6 -76441787#0 362066955#5 -76441787#2 -76441065#1 76441531#7 76442090#2 362066956#2 305807458#2 305807458#0 -76442471#3 76441065#2 -76441065#0 76441234#2 -76442443#9" departSpeed="max"  departPos="random"/>
    <trip id="40" depart="4.00" from="76441958#5" to="362066956#4" via="-76442246 76442648#1 76441669 -76442471#3 -76419221#1 76441764 305807458#2 76419221#1 76441531#3 76442090#2 -76441234#0 -76443372#3 76441495#0 76443312#3 -76441787#9 76441531#4 305807458#2 -76441065#0 76443312#1 -76441787#5 76441067#2 76442079#0 -76441787#7 76441526 76441531#7 76441365#2 -76419221#2 -76441065#0 -76419221#0 76441531#6" departSpeed="max"  departPos="random"/>
    <trip id="41" depart="4.10" from="-258787159#2" to="-362066956#4" via="76441164#3 76441067#0 -76441067#1 -258787159#6 -76443372#1 152627338#1 -76442443#1 -258787159#2 -76443747#3 -76419221#1 76419221#2 -76443355#0 76441787#7 76441531#5 -258787159#7 76441065#2 -362066956#4 76443382 76441526 76443372#7 -361431608#2 76441385#0 76441787#10 -76443312#0 76442443#1 -76443156#3 -76442246 -76442443#3 -76419221#2 76441904" departSpeed="max"  departPos="random"/>
    <trip id="42" depart="4.20" from="76443372#0" to="305807458#2" via="-76441787#8 -76441065#0 76441787#9 152673567#0 -76441385#1 362066956#2 -76442079#2 76442583#3 -76442246 -305807458#0 76442583#1 -258787159#2 76441065#0 -76445041#3 -76441958#2 76441531#7 -76442583#2 258787159#6 76441787#9 -152673567#0 76443312#0 76441694#0 76441787#10 76419221#0 -76441067#1 76419221#0 -76441164#4 -76443747#3 76442583#4 -76441787#7" departSpeed="max"  departPos="random"/>
    <trip id="43" depart="4.30" from="-76443372#4" to="-76441807#1" via="305807458#2 76445041#0 -362066956#0 76441787#0 -76442471#4 -76442471#4 -76442583#0 -76441065#0 -362066956#3 -76441065#0 76442079#5 76442443#7 -76441787#7 361431608#1 -76442648#2 76441787#0 -76441787#10 -76443156#2 -76441067#1 -258787159#7 -76441787#9 -76445041#2 -76441365#2 -76441385#1 76443312#1 -258787159#6 76443312#3 76441787#3 76441234#0 362066955#2" departSpeed="max"  departPos="random"/>
    <trip id="44" depart="4.40" from="258787159#7" to="-258787159#3" via="76442079#2 -362066956#1 76441164#2 -76441234#3 76441787#7 76441234#0 76443156#0 76419221#2 76441531#7 258787159#0 -76445041#3 76441787#7 -152627338#1 76442960 -76443747#1 -76442471#2 76441164#5 -362066956#1 -258787159#4 -76419221#2 76441787#8 -76443587 76441531#3 258787159#3 -367636030#1 76441141#2 -76442471#2 -258787159#3 76441787#0 76441787#4" departSpeed="max"  departPos="random"/>
    <trip id="45" depart="4.50" from="76445041#7" to="76441787#6" via="-76441365#2 -76442090#0 76443176#2 -76441164#6 -362066956#2 -76443587 76419221#2 76443372#0 76441067#3 -362066955#4 -76442471#4 76441065#0 -76441787#1 -258787159#1 -367636030#1 76445041#8 76443372#7 -361431608#1 -76441437#4 362066955#0 -76441787#0 76441531#7 -76441065#0 76441065#1 -76441787#7 -76441164#8 -76442079#3 76442079#1 -76441787#5 -362066956#0" departSpeed="max"  departPos="random"/>
    <trip id="46" depart="4.60" from="-139108139" to="258787159#3" via="76441694#0 -76441365#3 76419221#2 -76442090#1 76441531#7 -76443312#1 -76441787#7 76441067#1 367636030#0 76419221#2 76441141#5 258787159#6 -76441067#2 258787159#3 -76441787#7 -258787159#6 -76441067#3 -76442583#1 362066956#4 152673567#0 -362066956#0 -76441164#8 258787159#6 -76441787#2 -76441694#1 258787159#7 -362066956#4 -76442443#3 258787159#5 -362066956#1" departSpeed="max"  departPos="random"/>
    <trip id="47" depart="4.70" from="76441531#6" to="-321748518" via="76441787#7 305807458#2 76441787#7 -76441065#0 76442648#1 362066955#3 -258787159#5 -76441065#0 -76441065#0 76443747#2 76441787#2 -76441787#9 76441526 305807458#2 -76442481 76441787#1 76442150 -76441787#2 -76441202#2 76441787#7 76441067#0 -76442443#8 76441202#0 76442079#4 76443156#0 76441141#0 76442471#3 76441787#10 -152673567#1 -258787159#1" departSpeed="max"  departPos="random"/>
    <trip id="48" depart="4.80" from="76441065#2" to="305807458#2" via="-139108139 -76442079#5 -362066956#4 76441365#0 152627338#0 76441385#1 -76443372#2 76443176#0 -76443372#2 76441065#0 76441787#6 76441531#5 76442079#4 -76419221#2 76441531#0 -76441065#0 -76442443#8 -76443372#5 -76419221#2 -258787159#2 305807458#2 -76441787#4 76443176#1 -76441164#7 -76441437#0 76441164#2 76441141#6 -258787159#6 305807458#2 -76419221#0" departSpeed="max"  departPos="random"/>
    <trip id="49" depart="4.90" from="-362066956#3" to="-258787159#3" via="-76441495#2 -76441807#3 361431608#2 76441787#0 76441164#6 76441787#8 76443312#1 -76441065#0 76441531#2 76441787#6 76443156#0 -76441787#8 76443372#5 305807458#2 76441694#1 76419221#2 76443355#1 -76441787#8 -367636030#1 -362066956#4 -321748518 76441164#0 -258787159#6 -76441787#0 76441065#0 76441787#7 -76441807#1 76443212 76443355#3 76441141#1" departSpeed="max"  departPos="random"/>
    <trip id="50" depart="5.00" from="76443372#2" to="76441807#1" via="76441787#1 -258787159#3 76441164#6 76441531#1 305807458#2 76441958#4 76419221#0 361431608#0 76419221#2 -76443372#3 -76441787#4 -76419221#2 152627338#0 -362066956#3 258787159#5 -258787159#2 -76441365#3 -362066956#3 -258787159#0 -367636030#1 76441065#0 -258787159#2 305807458#2 -76443372#2 -305807458#2 -76441164#8 76441067#0 -76442648#2 76441787#6 -76441904" departSpeed="max"  departPos="random"/>
    <trip id="51" depart="5.10" from="76443156#2" to="76441065#0" via="-76443747#2 -76441385#2 -76442090#1 -76441958#1 76441787#0 76441202#0 76441067#1 -76441067#2 76443372#3 -76442079#5 152673567#1 76441065#0 76443156#0 258787159#6 -76419221#2 -76441764 -76441531#4 76443747#1 76441202#0 -362066955#1 -76441787#7 76441385#2 -76443355#1 76442471#1 -76442079#0 -76441164#0 76443312#3 -76443372#4 76441531#1 -362066956#4" departSpeed="max"  departPos="random"/>
    <trip id="52" depart="5.20" from="76443382" to="362066956#4" via="76443031#1 -76441065#1 -76441065#0 362066955#2 -361431608#1 -76419221#1 -362066956#4 -76442443#9 76441526 -139108139 -76441531#6 76441531#5 76419221#1 258787159#0 76441065#1 76442443#2 76443176#5 -76441065#0 76441164#6 -76442471#2 76441202#0 76441202#2 76443372#4 -76441787#7 139108139 -76441787#4 -76441065#0 -76442018#0 -76441787#5 76441067#3" departSpeed="max"  departPos="random"/>
    <trip id="53" depart="5.30" from="-76441437#3" to="-305807458#2" via="76443156#2 -76443372#0 76441234#2 -76441787#0 76441531#4 305807458#0 76441495#2 76441787#5 -76445041#8 -76419221#2 -76442079#0 -76443372#0 76441807#3 76441065#1 76441787#10 -76441234#1 76441065#1 -321748518 76441067#1 -76441958#5 -76441787#4 76419221#0 -258787159#2 -76441787#9 76441482#1 76441065#0 76441164#2 76442443#0 -76445041#3 76445041#1" departSpeed="max"  departPos="random"/>
    <trip id="54" depart="5.40" from="-76441807#3" to="76441807#1" via="-76441385#2 300719826 -76443372#3 -76442648#2 76441365#3 -76441807#3 76442583#2 -77699442 76443312#2 -76442443#10 -76443156#2 -258787159#4 -76441531#6 -76441787#0 -76442471#1 -76441385#2 -76441787#5 -76419221#1 -76443372#7 -76441669 76442150 362066955#4 -76419221#0 -76441164#0 -76419221#2 -361431608#1 -76442079#4 -76443312#2 -362066955#1 76441065#0" departSpeed="max"  departPos="random"/>
    <trip id="55" depart="5.50" from="76443372#0" to="-362066956#4" via="76441531#6 -76443747#1 -76441694#0 -305807458#1 -152627338#0 -362066955#0 -76441787#5 362066956#0 76441065#0 -76441787#0 76443355#3 -76441787#3 76441531#6 258787159#2 76441531#1 305807458#0 76441787#7 76441787#7 -258787159#5 76441141#2 -76441787#7 -76441807#3 -76441065#0 -76419221#2 76441164#1 -76443355#3 76441141#3 76441067#3 76442648#2 -76441365#1" departSpeed="max"  departPos="random"/>
    <trip id="56" depart="5.60" from="-76441787#10" to="-76419221#2" via="-258787159#4 -76441526 76441234#3 -76443312#3 -76441482#0 -76441202#0 -76442471#2 -76441958#4 -76442471#1 76441065#0 76442443#7 258787159#6 76442246 76441787#7 76441065#0 -76441065#0 76441787#6 76443156#0 76441531#7 -76419221#2 76443156#3 76442018#0 258787159#3 76419487 -76441807#1 -76441787#0 76441437#3 77699442 -362066956#0 -76441787#3" departSpeed="max"  departPos="random"/>
    <trip id="57" depart="5.70" from="-367636030#1" to="-76441807#1" via="362066956#1 -321748518 -76441065#1 -76443372#1 -305807458#1 -305807458#2 -76443156#2 -76445041#4 -76441787#5 -76441787#0 76443747#3 76441531#7 -76441065#0 76443372#5 -76443156#0 -152627338#1 76443312#3 76419221#2 -362066955#1 -76441065#1 -258787159#0 -76441065#0 76443156#4 76419221#2 76443382 -76442079#2 -76442471#3 -77699442 -76419221#2 -76441787#7" departSpeed="max"  departPos="random"/>
    <trip id="58" depart="5.80" from="76443031#2" to="305807458#2" via="362066956#4 258787159#6 258787159#6 -76442079#5 -76442583#4 -76419221#0 -76419487 152627338#1 -258787159#5 76424480 -76419221#2 305807458#2 -76419221#2 76442090#2 258787159#1 -152627338#0 76441531#1 76441904 76441531#6 76441437#4 76441787#3 -76441787#7 76443156#3 76442018#1 76441531#0 258787159#2 76442090#3 76442471#4 76441495#1 -76419221#1" departSpeed="max"  departPos="random"/>
    <trip id="59" depart="5.90" from="76441531#4" to="76441807#1" via="76441694#2 76443355#2 76441065#0 -76441787#8 -362066956#3 -76445041#6 -258787159#6 362066956#3 -76441787#9 -321748518 76443156#0 -76442443#3 -76441787#8 -76441787#0 76441764 -76441787#8 -76441385#1 76443747#1 -258787159#3 -76442443#7 -76442090#3 76441482#1 -76441482#1 76441067#1 -362066955#4 76441164#3 -76441365#3 -76441437#3 76441787#8 258787159#6" departSpeed="max"  departPos="random"/>
    <trip id="60" depart="6.00" from="-76441787#9" to="76441065#0" via="76442583#0 -76419221#0 76441141#6 -76441385#1 76441531#5 -258787159#0 152673567#1 258787159#2 -362066955#1 305807458#0 -76441787#10 362066955#5 76442079#3 -76441495#2 76441065#1 -76445041#5 -76441787#7 -76441531#1 76441365#0 -305807458#2 -76442583#3 -76441787#6 -76441787#3 -362066955#0 76419221#2 -76441065#0 76441787#5 76441482#0 76419221#0 -76441164#6" departSpeed="max"  departPos="random"/>
    <trip id="61" depart="6.10" from="76441067#3" to="76419221#2" via="361431608#2 -76442443#9 -76442443#7 76441787#8 -76441807#0 76441164#4 -76441164#4 76441787#5 -76441787#7 -76442443#9 76441787#7 76442443#9 258787159#6 -76441385#3 76443176#0 -76441164#6 76445041#5 76441694#0 -76443156#2 -152627338#0 -76441787#0 -76442583#0 76441365#1 -76442443#4 76441164#1 -76445041#1 76443212 76441065#0 -76442018#0 -258787159#6" departSpeed="max"  departPos="random"/>
    <trip id="62" depart="6.20" from="-76441234#3" to="305807458#2" via="76441787#5 76419221#1 76442648#2 76419221#2 76441787#1 76441365#3 -76442079#0 305807458#2 -76441787#3 76441958#2 -76441787#0 -362066956#0 -76443355#0 -76445041#5 -321748518 -76445041#5 76442443#5 76441164#7 76442583#2 -76441787#0 258787159#3 76441531#3 76441787#0 -76441164#6 76443176#2 -76443747#3 305807458#2 305807458#0 152627338#0 -362066956#2" departSpeed="max"  departPos="random"/>