<?xml version="1.0" encoding="UTF-8"?>

<!-- generated on Tue Mar 14 21:30:15 2017 by SUMO duarouter Version 0.25.0D
<?xml version="1.0" encoding="UTF-8"?>

<configuration xmlns:xsi="http://www.w3.org/2001/XMLSchema-instance" xsi:noNamespaceSchemaLocation="http://sumo.dlr.de/xsd/duarouterConfiguration.xsd">

    <input>
        <net-file value="ottawa.net.xml"/>
        <additional-files value="ottawa.600.randomTrips.xml"/>
        <weight-files value="ottawa.weight.xml"/>
        <weight-attribute value="traveltime"/>
        <trip-files value="ottawa.600.trips.xml"/>
    </input>

    <output>
        <output-file value="ottawa.600.routes.xml"/>
    </output>

    <processing>
        <repair value="true"/>
        <repair.from value="true"/>
        <repair.to value="true"/>
        <keep-all-routes value="true"/>
        <skip-new-routes value="true"/>
    </processing>

    <time>
        <begin value="0"/>
        <end value="60.00"/>
    </time>

    <report>
        <verbose value="true"/>
        <log value="duarouter.log"/>
    </report>

</configuration>
-->

<routes xmlns:xsi="http://www.w3.org/2001/XMLSchema-instance" xsi:noNamespaceSchemaLocation="http://sumo.dlr.de/xsd/routes_file.xsd">
    <vType id="fastCar" maxSpeed="33.00" probability="0.50" speedFactor="1.00" speedDev="0.30" vClass="passenger">
        <carFollowing-Krauss accel="0.80" decel="4.50" sigma="0.50"/>
    </vType>
    <vehicle id="0" type="fastCar" depart="0.00" departPos="random" departSpeed="max">
        <route edges="-321748518 -76441065#1 -76441065#0 -69736 76443156#0 76443355#0 -76445041#4 -76443747#0 --69736 76441065#0 76441065#1 76441065#2 362066956#0 362066956#1 362066956#2 362066956#3 362066956#4 76419221#0 76441202#0 76441202#1 76441437#2 76441437#3 76441437#4 139108139 -305807458#1 -305807458#0 -76419221#2"/>
    </vehicle>
    <vehicle id="1" type="fastCar" depart="0.10" departPos="random" departSpeed="max">
        <route edges="76442079#2 -362066955#1 -362066955#0 -362066956#2 -362066956#1 -362066956#0 76441787#0 76443031#0 -76441164#0 76441065#2 362066956#0 362066956#1 362066956#2 362066956#3 362066956#4 76419221#0 76419221#1 76419221#2 305807458#0 305807458#1 -139108139 152627338#0 152627338#1 76441531#6"/>
    </vehicle>
    <vehicle id="2" type="fastCar" depart="0.20" departPos="random" departSpeed="max">
        <route edges="-76442471#1 76443176#1 -76441958#1 -76441958#0 -76443355#3 -76443355#2 -76443355#1 76445041#5 -76441385#0 -76443156#1 -76443156#0 --69736 76441065#0 76441065#1 76441065#2 362066956#0 362066956#1 362066956#2 362066956#3 362066956#4 76419221#0 76419221#1 76419221#2"/>
    </vehicle>
    <vehicle id="3" type="fastCar" depart="0.30" departPos="random" departSpeed="max">
        <route edges="76442079#0 76442079#1 76442079#2 362066955#2 362066955#3 362066955#4 362066955#5 -76442583#2 -76442583#1 -76442583#0 -76441787#10 -76441787#9 -76441787#8 -76441787#7 -76441787#6 -76443355#3 -76443355#2 -76443355#1 -76443355#0 -76443156#0 --69736 76441065#0"/>
    </vehicle>
    <vehicle id="4" type="fastCar" depart="0.40" departPos="random" departSpeed="max">
        <route edges="362066956#1 362066956#2 362066955#0 362066955#1 362066955#2 362066955#3 362066955#4 76441495#2 361431608#4 -76442583#3 -76442583#2 -76442583#1 -76442583#0 -76441787#10 -76441787#9 -76441067#3 -76441067#2 -76441067#1 76445041#8 76441807#1"/>
    </vehicle>
    <vehicle id="5" type="fastCar" depart="0.50" departPos="random" departSpeed="max">
        <route edges="-305807458#0 -76419221#2 -76419221#1 -76419221#0 258787159#0 258787159#1 -76442079#4 361431608#1 76441958#4 -258787159#2 -258787159#1 -258787159#0 -362066956#4 -362066956#3 -362066956#2 -362066956#1 -362066956#0 -321748518 -76441065#1 -76441065#0 -69736 76443156#0"/>
    </vehicle>
    <vehicle id="6" type="fastCar" depart="0.60" departPos="random" departSpeed="max">
        <route edges="76441164#1 76442443#2 -76441787#1 -76441787#0 362066956#0 362066956#1 362066956#2 362066956#3 362066956#4 76419221#0 76419221#1 76419221#2 305807458#0 305807458#1 -139108139 -76441437#4 -76441437#3 -76441437#2 -76441202#1 -76441202#0 -76419221#0 258787159#0 258787159#1 258787159#2 258787159#3 258787159#4 258787159#5 -76442583#4 -76442583#3 -76442583#2 -76442583#1 -76442583#0 -76441787#10 -76441807#3 -76441807#2 -76441807#1"/>
    </vehicle>
    <vehicle id="7" type="fastCar" depart="0.70" departPos="random" departSpeed="max">
        <route edges="152627338#1 -76441531#5 -76441531#4 -76441531#3 -76441531#2 -76441531#1 -76441531#0 258787159#5 -76442583#4 -76442583#3 -76442583#2 -76442583#1 -76442583#0 -76441787#10 -76441787#9 -76441787#8 -76441787#7 -76441787#6 -76441787#5 -76441787#4 76442079#0 76441141#3 -76441958#0 -76441787#5 -76441787#4 -76441787#3 -76441787#2 -76441787#1 -76441787#0 -321748518 -76441065#1 -76441065#0"/>
    </vehicle>
    <vehicle id="8" type="fastCar" depart="0.80" departPos="random" departSpeed="max">
        <route edges="76441807#2 76441807#3 -76441787#9 -76441787#8 -76441787#7 -76441787#6 -76441787#5 -76441787#4 -76441787#3 -76441787#2 -76441787#1 -76441787#0 362066956#0 362066956#1 362066956#2 362066956#3 362066956#4 76419221#0 76441202#0 76441202#1 76441437#2 76441437#3 76441437#4 139108139 -305807458#1 -305807458#0 -76419221#2"/>
    </vehicle>
    <vehicle id="9" type="fastCar" depart="0.90" departPos="random" departSpeed="max">
        <route edges="76445041#5 76445041#6 76445041#7 76441067#1 76441067#2 -76441164#7 76442090#3 -76441787#7 -76441787#6 -76441787#5 -76441787#4 -76441787#3 -76441787#2 -76441787#1 -76441787#0 -321748518 -76441065#1 -76441065#0 -69736 76443156#0"/>
    </vehicle>
    <vehicle id="10" type="fastCar" depart="1.00" departPos="random" departSpeed="max">
        <route edges="362066956#2 362066955#0 -76442443#5 76443176#4 -362066956#1 -362066956#0 -321748518 76441164#0 76443031#1 -76443372#0 76441065#1 76441065#2 362066956#0 362066956#1 362066956#2 362066956#3 362066956#4 76419221#0 76419221#1 76419221#2 305807458#0 305807458#1 305807458#2 -76441531#6"/>
    </vehicle>
    <vehicle id="11" type="fastCar" depart="1.10" departPos="random" departSpeed="max">
        <route edges="76441807#3 -76441787#9 -76441787#8 -76441787#7 -76441787#6 -76441787#5 -76441787#4 -76441787#3 -76441787#2 -76441787#1 76443031#0 76441164#1 76441164#2 76441164#3 76441164#4 76443355#3 -76441787#5 -76441787#4 -76441787#3 -76441787#2 -76441787#1 -76441787#0 362066956#0 362066956#1 362066956#2 362066956#3 362066956#4 76419221#0 76419221#1 76419221#2 305807458#0 305807458#1 305807458#2 -76441531#6"/>
    </vehicle>
    <vehicle id="12" type="fastCar" depart="1.20" departPos="random" departSpeed="max">
        <route edges="76445041#3 76445041#4 -76443355#0 -76443156#0 --69736 76441065#0 76441065#1 76441065#2 76441787#0 76443031#0 -76441164#0 -76441065#1 -76441065#0"/>
    </vehicle>
    <vehicle id="13" type="fastCar" depart="1.30" departPos="random" departSpeed="max">
        <route edges="258787159#1 258787159#2 258787159#3 258787159#4 258787159#5 -76442583#4 -76442583#3 -76442583#2 -76442583#1 -76442583#0 -76441787#10 -76441787#9 -76441787#8 -76441787#7 -76441787#6 -76443355#3 76441164#5 76441164#6 76442090#3 76441787#8 76441787#9"/>
    </vehicle>
    <vehicle id="14" type="fastCar" depart="1.40" departPos="random" departSpeed="max">
        <route edges="76441164#3 76441164#4 76443355#3 -76441787#5 -76441787#4 -76441787#3 -76441787#2 -76441787#1 -76441787#0 362066956#0 362066956#1 362066956#2 362066956#3 362066956#4 76419221#0 76419221#1 76419221#2 305807458#0 305807458#1 -139108139 152627338#0 152627338#1 76441531#6"/>
    </vehicle>
    <vehicle id="15" type="fastCar" depart="1.50" departPos="random" departSpeed="max">
        <route edges="-76442079#4 -361431608#0 -76441526 -362066956#3 -362066956#2 -362066956#1 -362066956#0 76441787#0 76441787#1 76441787#2 76441787#3 76441787#4 76441787#5 76441787#6 76441787#7 76441787#8 76441787#9 -76441807#3 -76441807#2 -76441807#1 -76441807#0 76441067#0 76441067#1 76441067#2 76441067#3 -76441787#8 -76441787#7 -76441787#6 76441958#0 76441141#4 76441141#5 76441495#0 76441495#1 76441495#2 -361431608#3 -361431608#2 76441958#4 -258787159#2"/>
    </vehicle>
    <vehicle id="16" type="fastCar" depart="1.60" departPos="random" departSpeed="max">
        <route edges="76442648#1 -76441164#2 -76441164#1 -76441164#0 -76441065#1 -76441065#0 -69736 76443156#0 76443156#1 76443156#2 76443156#3 76441067#0 76441067#1 76441067#2 76441067#3 -76441787#8 -76441787#7 -76441787#6 -76441787#5 -76441787#4 -76441787#3 -76441787#2 -76441787#1 -76441787#0 362066956#0 362066956#1 362066956#2 362066956#3 362066956#4 76419221#0 76419221#1 76419221#2"/>
    </vehicle>
    <vehicle id="17" type="fastCar" depart="1.70" departPos="random" departSpeed="max">
        <route edges="-76442090#3 76441164#7 76441067#3 -76441787#8 -76441787#7 -76441787#6 -76441787#5 -76441787#4 -76441787#3 -76441787#2 -76441787#1 -76441787#0 -321748518"/>
    </vehicle>
    <vehicle id="18" type="fastCar" depart="1.80" departPos="random" departSpeed="max">
        <route edges="-76443372#7 76442090#2 76442090#3 -76441787#7 -76441787#6 -76441787#5 -76441787#4 76442079#0 76441141#3 76441141#4 76441141#5 76441495#0 76441495#1 76441495#2 -361431608#3 76442471#3 258787159#4 76441531#0 76441531#1 76441531#2 76441531#3 76441531#4 76441531#5 76441531#6"/>
    </vehicle>
    <vehicle id="19" type="fastCar" depart="1.90" departPos="random" departSpeed="max">
        <route edges="-76419221#1 -76419221#0 258787159#0 258787159#1 258787159#2 258787159#3 258787159#4"/>
    </vehicle>
    <vehicle id="20" type="fastCar" depart="2.00" departPos="random" departSpeed="max">
        <route edges="76441437#1 -76441202#1 -76441202#0 -76419221#0 258787159#0 258787159#1 258787159#2 258787159#3 258787159#4 258787159#5 -76442583#4 -76442583#3 -76442583#2 -76442583#1 -76442583#0 -76441787#10 -76441787#9 -76441787#8 -76441787#7 -76441787#6 -76443355#3 -76441164#4 -76441164#3 -76442648#1 -76443372#2 -76443372#1 -76443372#0 76441065#1 76441065#2 362066956#0 362066956#1 362066956#2 362066956#3 76441526 76442443#7 258787159#1 258787159#2 258787159#3 258787159#4"/>
    </vehicle>
    <vehicle id="21" type="fastCar" depart="2.10" departPos="random" departSpeed="max">
        <route edges="76445041#8 76441807#1 76441807#2 76441807#3 -76441787#9 -76441787#8 -76441787#7 -76441787#6 -76441787#5 -76441787#4 -76441787#3 -76441787#2 -76441787#1 -76441787#0 362066956#0 362066956#1 362066956#2 362066956#3 362066956#4 76419221#0 76441202#0 76441202#1 -76441437#1 -76441437#0 -76441531#2 -76441531#1 -76441531#0 258787159#5 -76442583#4 -76442583#3 -76442583#2 -76442583#1 -76442583#0 -76441787#10 -76441807#3 -76441164#8 76441067#3 76441787#9"/>
    </vehicle>
    <vehicle id="23" type="fastCar" depart="2.30" departPos="random" departSpeed="max">
        <route edges="362066955#4 362066955#5 -76442583#2 -76442583#1 -76442583#0 -76441787#10 -76441787#9 -76441787#8 -76441787#7 -76441787#6 -76441787#5 -76441787#4 -76441787#3 -76441787#2 -76441787#1 -76441787#0 -321748518 -76441065#1 -76441065#0 -69736 76443156#0"/>
    </vehicle>
    <vehicle id="24" type="fastCar" depart="2.40" departPos="random" departSpeed="max">
        <route edges="76441164#6 -76442090#2 -76443372#6 76441385#2 -76441164#5 76443355#3 -76441787#5 -76441787#4 -76441787#3 -76441787#2 -76441787#1 -76441787#0 362066956#0 362066956#1 362066956#2 362066956#3 76441526 76442443#7 258787159#1 258787159#2 258787159#3 258787159#4"/>
    </vehicle>
    <vehicle id="25" type="fastCar" depart="2.50" departPos="random" departSpeed="max">
        <route edges="76441385#2 -76441164#5 76443355#3 -76441787#5 -76441787#4 -76441787#3 -76441787#2 -76441787#1 -76441787#0 362066956#0 362066956#1 362066956#2 362066955#0 76442443#6 -76441526 362066956#4 76419221#0 76419221#1 76419221#2"/>
    </vehicle>
    <vehicle id="26" type="fastCar" depart="2.60" departPos="random" departSpeed="max">
        <route edges="-76441787#6 -76441787#5 -76443747#3 76441164#4 76443355#3 -76441787#5 -76441787#4 -76441787#3 -76441787#2 -76441787#1 -76441787#0 -321748518"/>
    </vehicle>
    <vehicle id="27" type="fastCar" depart="2.70" departPos="random" departSpeed="max">
        <route edges="76445041#0 76445041#1 76445041#2 76445041#3 76445041#4 76445041#5 76445041#6 76445041#7 76441067#1 76441067#2 76441067#3 -76441787#8 -76441787#7 -76441787#6 -76441787#5 -76441787#4 -76441787#3 -76441787#2 -76441787#1 -76441787#0 362066956#0 362066956#1 362066956#2 362066956#3 362066956#4 76419221#0 76419221#1 76419221#2 305807458#0 305807458#1 -139108139 152627338#0 152627338#1 76441531#6"/>
    </vehicle>
    <vehicle id="28" type="fastCar" depart="2.80" departPos="random" departSpeed="max">
        <route edges="-76441958#5 258787159#3 258787159#4 258787159#5 -76442583#4 -76442583#3 -76442583#2 -76442583#1 -76442583#0 -76441787#10 -76441807#3 -76441164#8 76441067#3 -76441787#8 -76441787#7 -76441787#6 -76441787#5 -76441787#4 -76441787#3 -76441787#2 -76441787#1 -76441787#0 362066956#0 362066956#1 362066956#2 362066956#3 362066956#4 76419221#0 76419221#1 76419221#2 305807458#0 305807458#1 -139108139 152627338#0 152627338#1 76441531#6"/>
    </vehicle>
    <vehicle id="29" type="fastCar" depart="2.90" departPos="random" departSpeed="max">
        <route edges="-139108139 -76441437#4 -76441437#3 -76441437#2 -76441202#1 -76441202#0 -76419221#0 -362066956#4 -362066956#3 -362066956#2 -362066956#1 -362066956#0 76441787#0 76441787#1 76441787#2 76441787#3 76441787#4 76441787#5 76441787#6 76441787#7 76441787#8 76441787#9"/>
    </vehicle>
    <vehicle id="30" type="fastCar" depart="3.00" departPos="random" departSpeed="max">
        <route edges="76441164#1 76442443#2 -76441787#1 -76441787#0 362066956#0 362066956#1 362066956#2 362066956#3 362066956#4 76419221#0 76441202#0 76441202#1 76441437#2 76441437#3 76441437#4 139108139 -305807458#1 -305807458#0 -76419221#2"/>
    </vehicle>
    <vehicle id="31" type="fastCar" depart="3.10" departPos="random" departSpeed="max">
        <route edges="76441067#3 -76441787#8 -76441787#7 -76441787#6 -76441787#5 -76441787#4 -76441787#3 -76441787#2 -76441787#1 -76441787#0 -321748518 -76441065#1 76443372#0 76443031#2 -76445041#0 -69736 76443156#0 76443156#1 76443156#2 76443156#3 76443156#4 76441807#1"/>
    </vehicle>
    <vehicle id="33" type="fastCar" depart="3.30" departPos="random" departSpeed="max">
        <route edges="-76441787#8 -76441787#7 -76441787#6 -76441787#5 -76441787#4 -76441787#3 -76441787#2 -76441787#1 76443031#0 76441164#1 76441164#2 76441164#3 76441164#4 76443355#3 -76441787#5 -76441787#4 -76441787#3 -76441787#2 -76441787#1 -76441787#0 -321748518 -76441065#1 -76441065#0 -69736 76443156#0"/>
    </vehicle>
    <vehicle id="34" type="fastCar" depart="3.40" departPos="random" departSpeed="max">
        <route edges="361431608#1 76441958#4 -258787159#2 -258787159#1 -258787159#0 -362066956#4 -362066956#3 -362066956#2 -362066956#1 76441141#0 76441141#1 76441141#2 76442079#1 76443176#3 76443176#4 -362066956#1 -362066956#0 -321748518"/>
    </vehicle>
    <vehicle id="35" type="fastCar" depart="3.50" departPos="random" departSpeed="max">
        <route edges="-76442648#0 76445041#3 76445041#4 76443355#1 76443372#5 76443372#6 76442090#2 76442090#3 -76441787#7 -76441787#6 -76441787#5 -76441787#4 -76441787#3 -76441787#2 -76441787#1 -76441787#0 362066956#0 362066956#1 362066956#2 362066956#3 362066956#4 76419221#0 76419221#1 76419221#2 305807458#0 305807458#1 305807458#2 -76441531#6"/>
    </vehicle>
    <vehicle id="36" type="fastCar" depart="3.60" departPos="random" departSpeed="max">
        <route edges="76441141#1 -76442443#3 -76441787#1 -76441787#0 -321748518 -76441065#1 -76441065#0 -69736 76443156#0 76443156#1 76443156#2 76443156#3 76443156#4 76441807#1 76441807#2 76441807#3 -76441787#9"/>
    </vehicle>
    <vehicle id="37" type="fastCar" depart="3.70" departPos="random" departSpeed="max">
        <route edges="362066956#1 362066956#2 362066955#0 -76442443#5 76443176#4 -362066956#1 -362066956#0 76441787#0 76441787#1 76441787#2 76441787#3 76441787#4 76441787#5 76441787#6 76441787#7 76441787#8 -76441067#3 -76441164#7 76442090#3 -76441787#7 -76441787#6 -76441787#5 -76441787#4 -76441787#3 -76441787#2 -76441787#1 -76441787#0 362066956#0 362066956#1 362066956#2 362066956#3 362066956#4 76419221#0 76419221#1 76419221#2 305807458#0 305807458#1 305807458#2 -76441531#6"/>
    </vehicle>
    <vehicle id="38" type="fastCar" depart="3.80" departPos="random" departSpeed="max">
        <route edges="76441164#5 76441164#6 76442090#3 -76441787#7 -76441787#6 -76443355#3 -76443355#2 -76443355#1 -76443355#0 -76443156#0 --69736 76441065#0 76441065#1 76441065#2"/>
    </vehicle>
    <vehicle id="39" type="fastCar" depart="3.90" departPos="random" departSpeed="max">
        <route edges="-76442079#3 -362066955#1 -362066955#0 362066956#3 362066956#4 76419221#0 76419221#1 76419221#2 305807458#0 305807458#1 305807458#2 -76441531#6 -152627338#1 -152627338#0 139108139 -305807458#1 -305807458#0 -76419221#2 -76419221#1 -76419221#0 258787159#0 258787159#1 258787159#2 258787159#3 258787159#4 258787159#5 -76442583#4 -76442583#3 -76442583#2 -76442583#1 -76442583#0 -76441787#10 -76441807#3 -76441807#2 -76441807#1"/>
    </vehicle>
    <vehicle id="40" type="fastCar" depart="4.00" departPos="random" departSpeed="max">
        <route edges="76441531#5 76441531#6 -305807458#2 -305807458#1 -305807458#0 -76419221#2 -76419221#1 -76419221#0 258787159#0 258787159#1 258787159#2 258787159#3 258787159#4 258787159#5 -76442583#4 -76442583#3 -76442583#2 -76442583#1 -76442583#0 -76441787#10 -76441787#9 -76441067#3 -76441067#2 -76441067#1 76445041#8 76441807#1"/>
    </vehicle>
    <vehicle id="41" type="fastCar" depart="4.10" departPos="random" departSpeed="max">
        <route edges="76441385#3 -76441787#6 76441958#0 76441141#4 76441141#5 76441495#0 76443176#0 -76442471#0 76441141#5 76441141#6 -76442583#0 -76441787#10 -76441787#9"/>
    </vehicle>
    <vehicle id="42" type="fastCar" depart="4.20" departPos="random" departSpeed="max">
        <route edges="-76442079#4 -361431608#0 -76441526 -362066956#3 -362066956#2 -362066956#1 -362066956#0 76441787#0 76441787#1 76441787#2 76441787#3 76441787#4 76441787#5 76441787#6 -76441385#3 -76441164#5 76443355#3 -76441787#5 -76441787#4 -76441787#3 -76441787#2 -76441787#1 -76441787#0 362066956#0 362066956#1 362066956#2 362066956#3 76441526 76442443#7 258787159#1 258787159#2 258787159#3 258787159#4"/>
    </vehicle>
    <vehicle id="43" type="fastCar" depart="4.30" departPos="random" departSpeed="max">
        <route edges="76443176#2 76443176#3 76443176#4 -362066956#1 -362066956#0 -321748518 -76441065#1 -76441065#0 -69736 76443156#0 76443355#0 76445041#5 76445041#6 76442090#1 76442090#2 76442090#3 -76441787#7 -76441787#6 -76441787#5 -76441787#4 -76441787#3 -76441787#2 -76441787#1 -76441787#0 -321748518 -76441065#1 -76441065#0"/>
    </vehicle>
    <vehicle id="44" type="fastCar" depart="4.40" departPos="random" departSpeed="max">
        <route edges="-76441807#1 -76445041#8 -76445041#7 76442090#1 76442090#2 76442090#3 -76441787#7 -76441787#6 -76441787#5 -76441787#4 -76441787#3 -76441787#2 -76441787#1 -76441787#0 -321748518 -76441065#1 -76441065#0"/>
    </vehicle>
    <vehicle id="45" type="fastCar" depart="4.50" departPos="random" departSpeed="max">
        <route edges="76441164#5 76441164#6 76442090#3 -76441787#7 -76441787#6 -76443355#3 -76441164#4 -76441164#3 -76441164#2 -76441164#1 -76441164#0 76441065#2 76441787#0 76441787#1 76441787#2 76441787#3 76441787#4 76441787#5 76441787#6 76441787#7 76441787#8 76441787#9 -76441807#3 -76441807#2 -76441807#1"/>
    </vehicle>
    <vehicle id="47" type="fastCar" depart="4.70" departPos="random" departSpeed="max">
        <route edges="-76442090#1 76445041#7 76441067#1 76441067#2 -76441164#7 -76441164#6 -76441164#5 76443355#3 -76441787#5 -76441787#4 -76441787#3 -76441787#2 -76441787#1 76443031#0 -76441164#0 76441065#2"/>
    </vehicle>
    <vehicle id="48" type="fastCar" depart="4.80" departPos="random" departSpeed="max">
        <route edges="-76445041#7 -76442090#0 -76443156#2 -76443156#1 -76443156#0 --69736 76441065#0 76441065#1 76441065#2 362066956#0 362066956#1 362066956#2 362066956#3 362066956#4 76419221#0 76441202#0 76441202#1 -76441437#1 -76441437#0 -76441531#2 -76441531#1 -76441531#0 258787159#5 -76442583#4 -76442583#3 -76442583#2 -76442583#1 -76442583#0 -76441787#10 -76441787#9 -76441787#8 -76441787#7 -76441787#6 -76441787#5 -76441787#4 -76441787#3 -76441787#2 -76441787#1 -76441787#0 -321748518"/>
    </vehicle>
    <vehicle id="49" type="fastCar" depart="4.90" departPos="random" departSpeed="max">
        <route edges="152627338#0 152627338#1 76441531#6 -305807458#2 -305807458#1 -305807458#0 -76419221#2 -76419221#1 -76419221#0 -362066956#4 -362066956#3 -362066956#2 -362066956#1 -362066956#0 76441787#0 76443031#0 76443031#1 76443031#2 -76445041#0 76441065#0"/>
    </vehicle>
    <vehicle id="50" type="fastCar" depart="5.00" departPos="random" departSpeed="max">
        <route edges="76441141#3 -76441958#0 76441787#6 76441787#7 76441787#8 76441787#9 -76441807#3 -76441807#2 -76443372#8 76441067#2 76441067#3 -76441787#8 -76441787#7 -76441787#6 -76441787#5 -76441787#4 -76441787#3 -76441787#2 -76441787#1 -76441787#0 -321748518 -76441065#1 -76441065#0"/>
    </vehicle>
    <vehicle id="51" type="fastCar" depart="5.10" departPos="random" departSpeed="max">
        <route edges="-76419487 -76419221#1 -76419221#0 258787159#0 258787159#1 258787159#2 258787159#3 258787159#4 258787159#5 -76442583#4 -76442583#3 -76442583#2 -76442583#1 -76442583#0 -76441787#10 -76441807#3 -76441807#2 -76441807#1 -76441807#0 -76443156#3 76442090#0 76442090#1 76442090#2 76442090#3 -76441787#7 -76441787#6 -76441787#5 -76441787#4 -76441787#3 -76441787#2 -76441787#1 -76441787#0 -321748518"/>
    </vehicle>
    <vehicle id="52" type="fastCar" depart="5.20" departPos="random" departSpeed="max">
        <route edges="-76419487 -76419221#1 -76419221#0 258787159#0 258787159#1 258787159#2 258787159#3 258787159#4 258787159#5 -76442583#4 -76442583#3 -76442583#2 -76442583#1 -76442583#0 -76441787#10 -76441787#9 -76441787#8 -76441787#7 -76441787#6 -76441787#5 -76441787#4 -76441787#3 -76441787#2 -76441787#1 76443031#0 -76441164#0 76441065#2 76441787#0 76441787#1 76441787#2 76441787#3 76441787#4 76441787#5 76441787#6 76441787#7 76441787#8 76441787#9"/>
    </vehicle>
    <vehicle id="53" type="fastCar" depart="5.30" departPos="random" departSpeed="max">
        <route edges="76442090#3 -76441787#7 -76441787#6 -76441787#5 -76441787#4 -76441787#3 -76441787#2 -76441787#1 -76441787#0 362066956#0 362066956#1 362066956#2 362066956#3 362066956#4 76419221#0 76419221#1 76419221#2 305807458#0 305807458#1 -139108139 -76441437#4 -76441694#1 -76442443#10 -76419487 -76419221#1 -76419221#0 258787159#0 258787159#1 258787159#2 258787159#3 258787159#4 258787159#5 -76442583#4 -76442583#3 -76442583#2 -76442583#1 -76442583#0 -76441787#10 -76441787#9 -76441067#3 -76441067#2 -76441067#1 76445041#8 76441807#1"/>
    </vehicle>
    <vehicle id="54" type="fastCar" depart="5.40" departPos="random" departSpeed="max">
        <route edges="-362066955#1 -362066955#0 362066956#3 362066956#4 76419221#0 76419221#1 76419487 -76442443#9 -76441202#0 -76419221#0 258787159#0 258787159#1 258787159#2 258787159#3 258787159#4 258787159#5 -76442583#4 -76442583#3 -76442583#2 -76442583#1 -76442583#0 -76441787#10 -76441787#9 -76441787#8 -76441787#7 -76441787#6 -76443355#3 -76443355#2 -76443355#1 -76443355#0 -76443156#0 --69736 76441065#0"/>
    </vehicle>
    <vehicle id="55" type="fastCar" depart="5.50" departPos="random" departSpeed="max">
        <route edges="-258787159#2 -258787159#1 -258787159#0 -362066956#4 -362066956#3 -362066956#2 -362066956#1 -362066956#0 -321748518 -76441065#1 -76441065#0 76445041#0 76445041#1 76442443#0 -76443372#1 -76443372#0 -76441065#0"/>
    </vehicle>
    <vehicle id="56" type="fastCar" depart="5.60" departPos="random" departSpeed="max">
        <route edges="76441385#1 -76443372#5 -76443372#4 -76443372#3 -76443372#2 -76443372#1 -76443372#0 76441065#1 76441065#2 362066956#0 362066956#1 362066956#2 362066956#3 76441526 76442443#7 258787159#1 258787159#2 258787159#3 258787159#4"/>
    </vehicle>
    <vehicle id="57" type="fastCar" depart="5.70" departPos="random" departSpeed="max">
        <route edges="-362066955#5 76441495#2 -361431608#3 -361431608#2 76441958#4 -258787159#2 -258787159#1 -258787159#0 76419221#0 76441202#0 76442443#9 -76419487 -76419221#1 -76419221#0 -362066956#4 -362066956#3 -362066956#2 -362066956#1 -362066956#0 -321748518 -76441065#1 -76441065#0 -69736 76443156#0"/>
    </vehicle>
    <vehicle id="58" type="fastCar" depart="5.80" departPos="random" departSpeed="max">
        <route edges="-76445041#5 76443355#1 76443372#5 76443372#6 76442090#2 76442090#3 -76441787#7 -76441787#6 -76441787#5 -76441787#4 -76441787#3 -76441787#2 -76441787#1 -76441787#0 -321748518 -76441065#1 -76441065#0"/>
    </vehicle>
    <vehicle id="59" type="fastCar" depart="5.90" departPos="random" departSpeed="max">
        <route edges="76443176#3 76443176#4 -362066956#1 -362066956#0 76441787#0 76441787#1 76441787#2 76441787#3 76441787#4 76441787#5 76441958#0 76441141#4 76441141#5 76441495#0 76441495#1 76441495#2 -361431608#3 -361431608#2 76441958#4 -258787159#2 -258787159#1 -258787159#0 76419221#0 76419221#1 76419221#2 305807458#0 305807458#1 305807458#2 -76441531#6"/>
    </vehicle>
    <vehicle id="60" type="fastCar" depart="6.00" departPos="random" departSpeed="max">
        <route edges="76442246 -258787159#4 -258787159#3 -258787159#2 -258787159#1 -258787159#0 76419221#0 76419221#1 76419221#2 305807458#0 305807458#1 -139108139 -76441437#4 -76441694#1 -76442443#10 -76419487 -76419221#1 -76419221#0 258787159#0 258787159#1 258787159#2 258787159#3 258787159#4 258787159#5 -76442583#4 -76442583#3 -76442583#2 -76442583#1 -76442583#0 -76441787#10 -76441807#3 -76441807#2 -76441807#1"/>
    </vehicle>
    <vehicle id="61" type="fastCar" depart="6.10" departPos="random" departSpeed="max">
        <route edges="76441141#5 76441495#0 76441495#1 -362066955#4 76442471#2 76442471#3 258787159#4"/>
    </vehicle>
    <vehicle id="62" type="fastCar" depart="6.20" departPos="random" departSpeed="max">
        <route edges="-76441958#2 -76441958#1 -76441958#0 -76443355#3 -76443355#2 -76443355#1 -76443355#0 -76443156#0 --69736 76441065#0 76441065#1 76441065#2 362066956#0 362066956#1 362066956#2 362066956#3 362066956#4 76419221#0 76441202#0 76441202#1 76441437#2 76441437#3 76441437#4 139108139 -305807458#1 -305807458#0 -76419221#2"/>
    </vehicle>
    <vehicle id="63" type="fastCar" depart="6.30" departPos="random" departSpeed="max">
        <route edges="76441164#2 76441164#3 76441164#4 76443355#3 -76441787#5 -76441787#4 -76441787#3 -76441787#2 -76441787#1 -76441787#0 -321748518 76441164#0 76443031#1 -76443372#0 76441065#1 76441065#2"/>
    </vehicle>
    <vehicle id="64" type="fastCar" depart="6.40" departPos="random" departSpeed="max">
        <route edges="305807458#2 -76441531#6 -76441531#5 -76441531#4 -76441531#3 -76441531#2 -76441531#1 -76441531#0 258787159#5 -76442583#4 -76442583#3 -76442583#2 -76442583#1 -76442583#0 -76441787#10 -76441787#9 -76441067#3 -76441067#2 76443372#8 76441807#2 76441807#3 -76441787#9 -76441787#8 -76441787#7 -76441787#6 -76443355#3 -76443355#2 -76443355#1 -76443355#0 -76443156#0 --69736 76441065#0"/>
    </vehicle>
    <vehicle id="65" type="fastCar" depart="6.50" departPos="random" departSpeed="max">
        <route edges="-76443747#2 76443372#4 76443355#2 -76441164#4 76443747#3 76441787#5 -76443355#3 -76443355#2 -76443355#1 -76443355#0 -76443156#0"/>
    </vehicle>
    <vehicle id="66" type="fastCar" depart="6.60" departPos="random" departSpeed="max">
        <route edges="-76443156#0 --69736 76441065#0 76441065#1 76441065#2 362066956#0 362066956#1 362066956#2 362066956#3 76441526 -76442443#6 -362066955#0 -362066956#2 -362066956#1 -362066956#0 76441787#0 76443031#0 -76441164#0 76441065#2"/>
    </vehicle>
    <vehicle id="67" type="fastCar" depart="6.70" departPos="random" departSpeed="max">
        <route edges="76442471#3 258787159#4 258787159#5 -76442583#4 -76442583#3 -76442583#2 -76442583#1 -76442583#0 -76441787#10 -76441787#9 -76441787#8 -76441787#7 -76441787#6 -76443355#3 -76441164#4 -76441164#3 -76441164#2 -76441164#1 -76441164#0 -76441065#1 -76441065#0 -69736 76443156#0 76443156#1 76443156#2 76443156#3 76443156#4 76441807#1"/>
    </vehicle>
    <vehicle id="68" type="fastCar" depart="6.80" departPos="random" departSpeed="max">
        <route edges="76443747#3 -76441787#4 -76441787#3 -76441787#2 -76441787#1 -76441787#0 362066956#0 362066956#1 362066956#2 362066956#3 362066956#4 76419221#0 76441202#0 76441202#1 76441437#2 76441437#3 76441437#4 139108139 -305807458#1 -305807458#0 -76419221#2 -76419221#1 -76419221#0 -362066956#4 -362066956#3 -362066956#2 -362066956#1 -362066956#0 -321748518 -76441065#1 -76441065#0"/>
    </vehicle>
    <vehicle id="69" type="fastCar" depart="6.90" departPos="random" departSpeed="max">
        <route edges="-76443747#1 76445041#4 -76443355#0 -76443156#0 --69736 76441065#0 76441065#1 76441065#2 362066956#0 362066956#1 362066956#2 362066956#3 76441526 361431608#0 76442079#4 -258787159#1 -258787159#0 -362066956#4 -362066956#3 -362066956#2 -362066956#1 -362066956#0 76441787#0 76441787#1 76441787#2 76441787#3 76441787#4 76441787#5 76441787#6 76441787#7 76441787#8 76441787#9"/>
    </vehicle>
    <vehicle id="70" type="fastCar" depart="7.00" departPos="random" departSpeed="max">
        <route edges="-76441067#0 76443156#4 76441807#1 76441807#2 76441807#3 -76441787#9 -76441787#8 -76441787#7 -76441787#6 76441958#0 76441141#4 76441141#5 76441495#0 76441669 -76442583#1 -76442583#0 -76441787#10 -76441807#3 -76441807#2 -76441807#1"/>
    </vehicle>
    <vehicle id="71" type="fastCar" depart="7.10" departPos="random" departSpeed="max">