<?xml version="1.0"?>
<!-- generated on 2017-02-10 15:04:40.873573 by $Id: randomTrips.py 19495 2015-12-02 12:36:28Z behrisch $
  options: -n ottawa.300.roads.xml <doubleminus>r ottawa.300.routes.xml -a ottawa.300.randomTrips.xml <doubleminus>begin 0 <doubleminus>end 30.00 <doubleminus>period 0.1 <doubleminus>min-distance 0 <doubleminus>fringe-factor 1 <doubleminus>intermediate 50 -l -o ottawa.300.trips.xml
-->
<trips>
    <trip id="0" depart="0.00" from="76445041#5" to="76441437#0" via="-362066955#0 76442443#2 76443355#2 76419221#2 76442090#0 76441385#3 76445041#6 76441807#2 139108139 76441437#2 -76441787#5 76419487 362066956 -76443372#0 258787159#5 362066956 76443031#0 -258787159#3 76443355#1 362066953 76441694#1 -76442090#3 -258787159#5 76442443#8 76441437#0 -76441164#7 76441141#4 -258787159#4 -76441385#2 -76442583#0 76441437#0 -76441164#4 76441482#2 76445041#3 76442443#1 -76443747#1 76443031#2 76443312#0 76443176#2 305807458#2 -76442079#0 -76441164#8 76442443#2 -76442648#2 76441787#8 76441495#0 76441385#3 76443031#1 76443372#4 -76441531#6" />
    <trip id="1" depart="0.10" from="-362066955#4" to="-152627338#1" via="-76443355#1 305807458#2 76443156#1 -76443355#1 76441234#3 76443372#3 76441531#6 76441065#2 76441234#1 300719826 -139108139 76442090#1 -362066953 76443176#2 76443156#3 -361431608#1 76441787#1 76441495#0 76442443#6 76441482#1 -305807458#2 -77699442 76443176#1 152673567#0 -76442079#0 76442648#2 -305807458#2 362066955#1 -76442648#0 -76443355#0 76442443#5 -76441958#4 76441234#3 -305807458#0 -76441065#0 -76441958#3 -76441531#5 76442648#1 76441437#0 76443372#7 362066955#2 -76442018#0 -76441164#3 -305807458#0 -152673567#0 -76442018#0 362066955#2 -76442583#1 -76443747#1 -76442583#2" />
    <trip id="2" depart="0.20" from="-76442648#1" to="76442443#3" via="-76442648#0 -76443372#1 -76443355#1 76441787#7 -76442443#7 76441065#0 76442079#1 -76442648#2 -321748518 -76441807#2 76441787#5 300719826 76419221#0 76441807#1 -76443372#4 362066955#2 76441164#2 76443176#2 -76441067#3 76443355#1 152673567#1 -76441787#3 76445041#4 -76441067#1 76441065#2 76442443#2 76442090#1 -139108139 76442090#1 -76441202#0 76442090#2 76443747#2 76441065#0 -76442583#0 -76442583#1 305807458#2 -152627338#0 -361431608#0 76441141#6 76441141#4 76443176#4 76441067#3 76441234#3 258787159#1 76441385#0 76443747#0 367636030#0 -76441067#2 -76441067#2 305807458#2" />
    <trip id="3" depart="0.30" from="305807458#2" to="76441202#0" via="-305807458#2 -76441807#0 258787159#6 -76442079#3 76441067#2 -258787159#7 -258787159#3 76443372#6 -76441495#1 76443176#3 -76445041#6 76441164#2 -258787159#6 -76443372#2 76441065#1 76441067#2 76441437#1 -305807458#2 76441787#5 152627338#1 -76441531#0 -76442443#3 -76441958#0 152627338#0 -76441067#0 -76442079#1 -76441787#8 76441164#7 -76441437#0 -76442443#1 76441958#4 76441495#1 -76443355#2 76442648#0 76442648#1 -76442090#0 362066955#0 -76441807#2 -305807458#0 -76441669 76441164#5 -76442648#2 76441807#2 -76441365#1 76442583#1 -76442443#8 76443031#1 152673567#1 76442443#8 -76442443#3" />
    <trip id="4" depart="0.40" from="-76443747#3" to="367636030#0" via="-76441164#6 76441807#3 76443176#4 76442471#3 -76442443#1 -76441958#0 76443747#0 -76443747#1 76442471#2 76445041#6 -258787159#7 76443031#0 -76443372#2 --40374 76443355#3 -258787159#6 76443312#2 367636030#0 76443176#3 -76441773 76441807#3 -76441773 -76441958#0 76442583#3 76443031#0 -76441385#1 76442648#1 -76443355#2 -76443355#3 -305807458#0 76441365#2 76441437#0 76441694#1 76445041#5 76443176#4 76442090#3 -362066956 76443176#5 -258787159#7 -76441067#1 -76442079#1 305807458#0 -139108139 -76441904 -76442443#0 -76441807#1 362066955#2 76443372#4 -76443312#0 -76443747#3" />
    <trip id="5" depart="0.50" from="258787159#0" to="76441437#3" via="76441807#2 -76442443#0 -40376 258787159#1 -76443747#0 -258787159#6 76442090#0 -76443372#1 -258787159#3 -76441202#0 362066955#0 76443355#2 -76441531#6 -152627338#0 -76443355#0 76441787#0 361431608#4 -361431608#3 76441141#5 -76419221#0 -76442090#3 76443355#0 -76442443#8 -76442870 76442648#1 -76441067#1 139108139 -76419221#2 76443747#0 76442583#1 -76441067#1 -152673567#0 -76441065#0 -76443747#0 76443747#3 76442443#2 76442583#1 -76443261 76441807#1 305807458#0 76443372#7 258787159#1 76445041#5 76443747#0 -76441234#3 -76441164#6 -76443156#0 -76442583#3 -76441164#8 -76441531#2" />
    <trip id="6" depart="0.60" from="76442018#0" to="76441958#1" via="362066956 77699442 -76441437#0 76442443#10 -76443156#1 76441437#0 76441437#0 76443031#1 -152627338#0 258787159#6 76441807#1 76441807#1 76441807#1 -76441202#1 362066955#0 -258787159#2 76442443#5 -76441958#2 -361431608#2 76441141#1 76443312#3 -76441773 258787159#6 -76442079#3 -76443156#1 76419221#1 152673567#1 76442648#1 -76441787#1 -76441694#1 -76442583#0 361431608#4 -76441385#2 305807458#2 258787159#1 76441437#0 -76441958#4 76441437#0 258787159#3 -76442150 -76443587 -76443372#2 -76443747#2 -76441385#2 76441385#0 362066954 -76441065#1 -305807458#2 -76441495#1 76443372#8" />
    <trip id="7" depart="0.70" from="76443355#2" to="-76442583#3" via="-76441067#2 -76441234#1 76443176#2 --40374 -76442079#0 -76441437#0 -76442090#2 -76443747#0 -76445041#7 76443176#0 -76442090#3 -76442443#8 -361431608#1 76441164#1 76419487 76442443#2 76442018#0 -367636030#1 -76442443#9 76441531#0 300719826 -76445041#5 -76441067#2 76443747#1 -76442443#10 -76441437#0 76443156#4 76441164#7 -152673567#0 76441164#2 -76441958#0 -76441531#2 -76442648#2 76441065#0 -362066955#5 362066955#0 -76443312#2 76441385#0 76441531#5 -76445041#2 361431608#4 -76443372#8 -305807458#0 -76441437#0 -258787159#4 -152673567#1 76441067#3 -76441164#8 -362066955#2 76443031#1" />
    <trip id="8" depart="0.80" from="-76441437#0" to="-76442090#1" via="-76441437#4 76441385#2 -77699442 76419221#2 76441234#0 152627338#0 76443372#1 76443031#0 -76443747#0 -76441787#5 -361431608#0 -76441531#7 -76443372#7 76441234#3 76441141#5 -76443747#1 -76443747#0 -152627338#0 -76442648#0 -76443747#1 76441694#1 361431608#3 76441202#0 -258787159#2 -321748518 -361431608#1 -367636030#1 -76443372#8 -76442443#2 -76443355#2 361431608#4 76441787#6 76443176#2 -76441202#1 76442079#3 -76445041#2 -139108139 -76441495#2 76443355#2 76443176#0 -258787159#2 76443176#5 76441164#6 76441787#5 -76443747#0 76443355#3 76441904 -76442648#1 76441067#0 76441958#0" />
    <trip id="9" depart="0.90" from="76441787#7" to="76441067#2" via="76443176#5 76443176#4 -361431608#3 76441141#2 76443587 76441437#0 -76442443#2 362066955#3 -76443355#2 76443176#3 -76441437#4 -362066955#3 76443031#2 -76419487 76443156#2 76443355#3 76442443#6 -76445041#5 -76441787#7 76442443#8 -76442471#0 76443372#1 -76441904 -362066955#0 -76442443#0 76442090#3 -76442443#4 -152627338#1 -76441807#2 76443355#0 139108139 -361431608#4 -76442443#10 76443176#0 76442648#0 -76443156#0 -361431608#4 -76443587 -76443312#0 -76441773 -76442443#2 -76442471#3 76443312#0 76441958#2 -76443372#2 76441958#0 -76442079#4 -76441385#0 -76442079#3 -76443156#2" />
    <trip id="10" depart="1.00" from="-76441437#0" to="-76441787#2" via="-40376 --40374 76442471#3 76443156#4 -152673567#0 -305807458#2 -76443312#1 -76441531#2 76441365#3 -76445041#4 76441531#1 76441065#0 -76441385#3 76442443#2 -76441067#0 -76441067#3 76441531#7 -362066955#2 -76441385#3 -76419487 -76441164#8 76441067#1 76441787#1 76441067#0 76441807#1 -76441067#0 -76443747#2 -76441531#6 76441067#2 76441065#1 76442443#8 76445041#5 76443156#3 76441141#3 76443031#2 76442090#3 76441234#3 -362066955#5 76441904 152673567#1 152627338#1 -76442090#3 76441234#1 -76443355#2 -76441531#0 -76441531#6 -76441482#0 -361431608#4 76441787#2 76441141#0" />
    <trip id="11" depart="1.10" from="-76441234#1" to="76442471#1" via="76441067#1 -76441531#6 -76441531#1 76442443#2 76443747#1 -76442090#1 -258787159#4 -362066955#0 76441065#1 76442648#0 --40374 76442583#4 -362066955#4 -305807458#2 -76442443#0 76443355#0 76441067#0 76441773 76443355#3 -76441958#3 --40374 76441904 76441164#1 -76441958#3 76441385#0 76441067#1 76443747#0 -76441067#2 362066953 -76442443#3 76441365#2 361431608#3 76441141#1 76443372#8 152673567#0 -76441385#3 76441437#4 76442471#1 -76442018#1 362066953 76442443#8 76441141#3 139108139 -76441531#2 -76442443#6 362066955#1 76441234#1 76443747#1 76442443#3 -76441067#1" />
    <trip id="12" depart="1.20" from="-76443372#3" to="76441067#0" via="-76442090#0 361431608#4 76441958#1 76441234#1 76441234#1 -76441807#2 -305807458#2 -258787159#1 258787159#3 -76441958#3 305807458#2 -258787159#5 -76442090#0 -76443372#2 -76441787#6 76441495#0 76441958#2 -305807458#2 -76443156#0 76441437#0 -76441065#0 76441141#3 76443156#4 -76442648#2 361431608#3 305807458#2 76442583#4 -76441669 76443355#2 76442443#9 -76441067#3 -76443747#3 76441065#2 76441694#1 76443372#4 -76441531#7 -76442443#5 -76442090#2 -76442648#1 258787159#1 152627338#0 76441787#8 258787159#6 -76442443#9 -76443156#1 -305807458#0 76441385#1 -76442648#2 76441385#1 76441141#2" />
    <trip id="13" depart="1.30" from="76441694#0" to="-76441531#1" via="-361431608#4 361431608#1 -305807458#0 361431608#3 -76442443#8 76441694#1 -76441065#0 -258787159#1 76441773 76441787#6 -305807458#2 -76442443#5 76419221#1 76441141#5 76445041#6 362066955#0 76442443#8 -139108139 -76441365#1 -76442079#1 -76442443#2 -76441904 76443031#2 76441141#1 -321748518 -362066955#4 -76442471#3 -76442648#2 76441234#1 -76445041#2 76441437#0 -76442443#1 76441234#3 76441067#2 76441141#3 76441807#2 258787159#4 -152627338#0 -305807458#2 -361431608#3 -76441437#4 76441958#3 -305807458#2 76441531#0 -76443372#1 76441385#0 76442079#1 -76441531#7 --40374 305807458#0" />
    <trip id="14" depart="1.40" from="305807458#0" to="77699442" via="76441495#2 -40376 76442090#3 -76441437#0 76441141#1 -76443747#2 -76442079#3 76441495#1 76443747#3 76443372#7 76441141#5 -76443747#1 -76442090#1 76441065#2 76441141#5 76443747#2 361431608#3 152673567#0 -76443747#0 -76443261 -76441385#1 -76442090#0 76442090#2 -76441958#4 -76441065#0 -152627338#0 -76441385#2 -361431608#2 76441437#3 -76441437#4 76441787#5 -76441787#6 76441437#2 -76441807#0 -76442090#3 76442090#1 -76442443#7 -361431608#2 -77699442 -362066955#3 -362066955#2 76441067#0 76441065#2 -76443372#4 76443156#1 -76442443#1 --40374 -76441437#0 -305807458#0 -76441958#2" />
    <trip id="15" depart="1.50" from="-40376" to="76441385#3" via="76441385#0 76443156#2 -76443747#3 -76443355#1 76443176#2 -76441065#1 -76441807#0 76442443#3 76441482#1 258787159#2 76443747#1 76442471#3 -76441531#7 76441164#0 76442443#8 -362066955#0 76442090#0 -362066955#0 76441958#3 76441234#2 258787159#5 -76442583#4 -76441164#3 -76442648#1 -362066955#2 76443176#4 76441787#1 -76442443#8 76441067#0 76442443#1 76442443#2 -76441531#2 76441787#1 76441065#1 -76443372#2 -76441067#0 76443355#0 76441807#1 -76441669 76442443#4 152627338#0 -76442443#0 76441482#0 76441495#0 76441437#2 -76441067#2 -76441495#1 76441787#5 -305807458#2 -76441807#1" />
    <trip id="16" depart="1.60" from="-76443747#2" to="305807458#2" via="-76443355#3 -76445041#3 -76441164#6 76443747#0 -40376 76442443#0 76441958#1 -76441773 76443176#5 -76443156#1 -76441437#4 76442443#8 -76442583#4 -76442648#0 76442090#3 -76443747#1 76441365#1 76441067#2 -76441787#1 76441531#7 258787159#2 -76442648#0 76441234#2 -76443355#3 -76441437#0 -76441531#5 -76443747#1 -76443355#1 76443747#3 -76443747#3 -76441807#2 -321748518 -76445041#5 -76441385#2 -76441067#3 -76441164#1 76441067#1 -76441365#3 76441495#1 -76441067#2 76443176#4 -258787159#6 76443747#3 76442443#3 -305807458#0 258787159#7 76443031#0 -76442443#2 76419487 -76443372#3" />
    <trip id="17" depart="1.70" from="-76441385#3" to="76442471#2" via="76441482#2 -76445041#0 -76443156#3 76441385#1 -76441958#1 361431608#0 76441437#3 -76441164#5 76441141#5 -76443355#2 76442090#2 -362066955#3 76441234#3 -76442090#3 76443031#0 76441482#0 -76441164#6 -76442648#2 -76441437#0 -76443747#3 -362066955#4 76442090#0 76441365#3 76441526 76441385#1 76442471#3 76441531#2 76442648#1 76443031#0 76443176#1 -76441526 -76442079#2 -76441495#2 -76443312#0 77699442 361431608#3 -76443747#1 362066955#0 -76443355#2 -76442443#6 76442443#4 76443031#0 76441437#4 76442648#2 -76443747#1 -76441234#1 76441141#1 -361431608#2 305807458#2 76443312#1" />
    <trip id="18" depart="1.80" from="-258787159#2" to="76419221#2" via="76443156#4 76441234#1 -76441437#0 -76441437#0 76441065#2 -305807458#0 76443176#1 -76441531#2 76441164#0 76442443#2 76442079#2 76441141#2 76441164#3 -76443355#2 -76442471#0 76441495#1 362066955#5 76443176#5 76442471#1 76442090#1 -76441365#1 -362066955#1 76443031#0 -77699442 76442090#1 305807458#0 258787159#2 -76441234#1 -76443355#0 76441482#0 76442471#0 76443176#3 76441385#2 -76441164#7 76441482#0 76443031#1 -76442583#0 -152627338#0 76442471#0 76441807#1 76443747#1 76442648#1 362066955#0 -76443372#3 -76443355#0 76441773 -76441807#0 -362066953 -362066955#1 76441065#2" />
    <trip id="19" depart="1.90" from="-361431608#3" to="76443355#2" via="-76442583#0 76443587 -76442018#0 -76442090#1 -321748518 76443747#3 -76441234#3 76442079#0 -76443261 76443355#1 76441787#7 -76441531#5 76442471#3 -76443747#1 76441495#2 -76441385#1 361431608#2 -76441807#1 76443747#1 -258787159#5 76443372#2 -76441531#0 76441526 -76441669 -76442079#3 305807458#0 76442018#0 76443355#3 -76441807#0 -76441787#8 76441904 361431608#2 -76442443#8 76442648#2 -76442150 258787159#4 76442443#8 -76443747#0 76442443#8 76441365#1 -76441067#1 -76445041#5 -76441385#2 76442583#2 76441141#2 76441482#2 -76441787#5 76441482#0 -76443747#2 -76441067#2" />
    <trip id="20" depart="2.00" from="-76441437#0" to="-76441437#0" via="76443176#0 258787159#7 -76443747#0 305807458#2 76441787#5 76445041#6 76442471#1 76442090#3 76441385#3 258787159#1 76445041#8 76441141#1 76419221#0 139108139 -76442443#8 76442018#0 76441067#2 -76441365#2 -321748518 76441385#3 152673567#0 76441067#3 367636030#0 -362066956 -152627338#0 76441807#2 362066955#0 -76441164#7 -76441437#3 -76443747#3 -76443587 76441787#4 -76442079#0 76443176#0 76442648#2 76441385#2 -258787159#3 76441365#1 -76442079#2 76443355#1 76441141#0 76443312#1 305807458#2 -76442648#2 76443747#1 -76441065#0 -76442090#3 76441958#4 -362066955#2 76442648#2" />
    <trip id="21" depart="2.10" from="-76441234#3" to="361431608#0" via="-76442870 76442443#8 76442471#1 76443176#5 76441526 76442648#1 76443176#4 362066955#0 -76442090#3 -361431608#3 -258787159#3 -76441787#5 367636030#0 -258787159#3 -76441067#2 361431608#0 -76442443#3 -76441164#0 76443355#2 300719826 -305807458#0 361431608#1 -76443372#8 76443747#2 76443355#0 76441437#0 76441385#2 -76441385#2 -76441495#2 -76442443#9 76442443#8 -76441787#1 -76441531#7 76443747#2 -76443355#1 -361431608#0 76443355#0 76441141#5 76442443#0 -76441694#1 76441807#1 76441482#2 76441807#3 76442583#2 -76441164#2 --40374 76445041#8 -76442443#0 -76441164#7 76419221#2" />
    <trip id="22" depart="2.20" from="-76442150" to="-258787159#3" via="76443747#0 -76441202#0 -76442583#1 76441067#3 76441164#5 361431608#1 76441482#2 -305807458#2 -76441807#0 -76441234#1 -76443312#2 76441482#0 76442018#0 76443372#7 -152627338#0 76441141#4 361431608#4 305807458#0 76419221#1 -305807458#0 300719826 -76443372#1 367636030#0 76441385#0 -76419221#2 305807458#0 76441694#1 -76441437#0 76443176#2 139108139 76443372#2 -76443372#1 -76441067#2 76441164#8 76441141#1 362066955#2 -76441958#4 76443355#2 362066955#4 -76443747#1 76443747#1 -362066955#2 76441234#3 -76441164#5 76441526 -76445041#1 76441385#2 76443355#1 76443372#2 76441385#2" />
    <trip id="23" depart="2.30" from="-76443747#1" to="76441437#3" via="-258787159#2 -76441234#2 -258787159#1 76441067#0 367636030#0 76441065#2 76441164#5 152673567#1 76441385#0 -76441694#1 76441365#2 -76441531#2 76442443#1 76441065#2 362066955#2 --40374 76443176#3 -152627338#0 76445041#0 76443372#7 76442090#2 76441495#0 -76441365#2 -76442443#3 -76441694#1 152627338#0 -76441787#9 -362066955#5 76443372#2 76441787#9 76443355#3 76441495#0 300719826 76442090#1 152627338#0 76443176#2 76441482#0 76442090#0 -76442090#0 76441067#3 -76441164#8 -76441164#4 76441141#0 76441531#2 152673567#0 76445041#2 362066955#3 305807458#0 -76445041#3 -76443747#2" />
    <trip id="24" depart="2.40" from="-76442583#0" to="76443372#7" via="258787159#7 -76442648#1 76442648#0 -76441437#0 76442443#8 76443312#1 362066955#2 -152673567#1 -76441773 362066955#5 -76441787#7 --40374 76441202#0 76441807#3 76443747#2 76441807#2 -76441065#1 76441164#8 76441234#1 367636030#0 76442090#3 76442443#2 76441807#2 76442443#4 -361431608#2 76441385#3 76443372#5 -305807458#2 362066955#2 362066955#0 76445041#8 -76443587 76442018#1 -76442443#2 -76442090#3 -76442090#2 -76445041#2 76441495#0 76441067#0 362066955#2 367636030#0 -362066955#3 -305807458#0 -76443355#2 76442443#10 76442648#2 76441958#0 76441141#0 76441694#1 76443355#3" />
    <trip id="25" depart="2.50" from="-76441787#6" to="76442090#2" via="-76442870 76445041#1 -76441234#3 258787159#6 -76442443#6 -76443355#3 -76441526 76443176#2 76442648#1 -76445041#7 76441385#2 76442648#0 -76441202#1 76443372#3 258787159#3 76441787#9 -76441234#2 -305807458#2 76419487 76443312#0 -361431608#2 -76441067#1 76443587 -76441807#0 -139108139 258787159#1 -258787159#4 76441141#4 -258787159#7 76441437#2 -76442648#1 -76443355#0 76441141#1 -76441787#5 -76442443#0 -76442079#0 76445041#6 -76441067#1 258787159#6 76441067#3 -76445041#3 -76442583#1 76442648#0 76442471#0 76442090#1 76441067#1 76442090#2 -76442443#5 76443031#1 152627338#0" />
    <trip id="26" depart="2.60" from="76441482#2" to="76441164#8" via="139108139 76441164#2 -76441067#0 76441958#3 -76442090#2 -76442443#6 -76443355#3 76443372#0 76441437#2 76442443#6 76441437#3 76442648#2 76443176#2 76442443#0 76443747#2 -76442150 362066955#3 76443355#0 -76441437#0 76442090#3 -362066955#0 76441807#2 -76419221#0 -77699442 258787159#6 -258787159#7 76441202#1 -305807458#0 76441141#1 -76443312#2 258787159#1 -76441694#1 76445041#3 76442079#0 -305807458#0 361431608#3 76441065#1 -76441065#1 -76443355#0 76443355#3 76443176#2 76441958#0 76443312#0 -76443747#0 76443355#2 -76441807#0 -76442443#9 76442443#1 76442648#2 -76442079#1" />
    <trip id="27" depart="2.70" from="-76441669" to="76441385#0" via="76443156#2 305807458#0 -152627338#0 152627338#0 76442079#1 -76441787#7 76443355#0 76442648#0 -76442648#2 -76443261 -76442471#2 76442443#4 76441531#6 -76441958#3 362066955#5 76445041#3 -76442648#1 76441437#0 -76442583#4 76441065#0 362066955#2 76419487 76442648#1 -76443261 -76443355#3 -76441807#0 -76441531#4 76441526 76443312#0 76441065#1 258787159#7 76441385#3 -305807458#0 362066956 76445041#6 76441067#3 76442150 76442443#8 76441958#3 -76441904 -305807458#2 -258787159#3 76443312#3 -76442090#1 76441437#3 76442443#1 -76441904 76443747#1 -76441807#0 305807458#0" />
    <trip id="28" depart="2.80" from="76441141#6" to="-76443747#3" via="-76419487 76442443#8 76445041#1 305807458#2 76443031#0 -76442648#1 -76441164#7 -76443747#2 76441482#0 76442079#1 -76443747#0 -76443261 76443156#0 -305807458#2 -76441787#5 -76441694#1 -258787159#3 77699442 -76442443#6 76441141#5 -321748518 362066955#4 -76441531#7 -76441365#1 76442443#8 76441141#0 -76441067#2 76441234#1 --40374 -76443747#3 -76441067#3 76441385#3 76442471#2 -76442443#2 76441773 -76441164#1 76441141#2 -76442079#2 362066955#1 76441437#0 76441958#4 -76441067#3 76442090#1 -76441437#3 76443355#1 76443156#3 -76441807#2 -361431608#3 -362066955#5 76442443#0" />
    <trip id="29" depart="2.90" from="-76442471#4" to="76443372#7" via="76443372#2 -76441669 76441141#1 76441067#3 -76445041#2 76441773 152627338#0 -76442648#0 -76441495#0 361431608#2 76441526 -258787159#2 76419221#2 76442443#8 -76441526 -76442471#0 -305807458#0 -76443312#1 152627338#0 76443031#0 76419221#1 76443747#0 76441437#0 -76443355#0 -76441067#0 -76443261 -76441065#1 76441141#6 -76441385#3 76443355#1 -76443156#1 362066955#2 -76442443#0 76443176#0 361431608#2 305807458#2 76443355#3 76442090#3 -76441669 76441234#3 -76442018#1 -362066955#4 76443372#1 76441958#0 76441385#2 361431608#4 -76441385#1 76442079#0 76441807#3 -76443156#0" />
    <trip id="30" depart="3.00" from="76441067#0" to="-76441958#1" via="-76443355#0 76443355#0 76442960 -362066955#1 76441234#2 -258787159#1 -76441531#5 300719826 -76441385#3 76443355#1 258787159#5 -76441807#1 -76441807#1 -76442090#3 -40376 -76442090#0 -76442471#1 -76443372#4 76445041#5 76441526 -76442018#0 -76441385#0 -76441385#2 300719826 76442443#2 76442648#0 -76441202#0 76441065#0 -76441437#0 76441164#3 76443355#2 -258787159#4 76419221#0 76443355#0 -76442443#3 76442090#2 76441787#5 76442090#1 76443031#0 -258787159#1 76441067#0 76443156#2 -76443372#1 76441437#2 76443176#3 76441164#1 -77699442 76441164#0 -76441807#0 -258787159#1" />
    <trip id="31" depart="3.10" from="258787159#1" to="76445041#3" via="-76442443#3 -77699442 -76442471#0 -76441531#2 76443355#1 -76441437#0 -258787159#4 76443355#2 76443372#8 -76441437#2 -76442443#1 -76441067#1 76442471#3 -76441234#1 76442079#3 258787159#3 -76443747#0 76441385#3 76443372#4 -76442443#0 -76419221#0 -76441385#2 76441958#3 -40376 76445041#3 76443312#0 -76419221#0 76441531#5 -76443156#1 -76441065#1 -305807458#0 -76441526 -76445041#7 -362066956 -76441787#7 76441807#1 -76441234#2 -258787159#1 -76441067#2 -76441385#1 76442090#1 -76442648#2 76443372#0 -362066955#5 -76442443#1 -152627338#0 76441365#1 76443355#3 76441437#0 76442648#1" />
    <trip id="32" depart="3.20" from="362066955#1" to="77699442" via="76441437#0 76441482#0 76441787#7 361431608#3 76443355#3 -76442018#0 362066953 -76442090#0 -76441807#2 76441234#1 76443355#1 -76442079#1 -152627338#0 76442443#10 76442079#0 -367636030#1 76442960 -76442583#0 -76442443#8 -258787159#7 152627338#0 -305807458#2 -76441164#6 76441694#1 -76442583#3 76445041#4 -76442443#7 -76442443#3 258787159#2 76442471#3 362066955#5 76443156#4 76441164#6 -76443355#3 -258787159#3 76443747#3 76441202#0 -76441164#2 -76442018#0 -76441904 76443176#1 76441065#2 76441904 76443176#5 76442583#1 -76443261 -76441787#1 -76441437#2 76441141#0 -76441164#8" />
    <trip id="33" depart="3.30" from="76442443#6" to="76442443#7" via="76442090#1 76442443#2 76441067#3 152673567#1 76442443#0 -76443355#2 76441531#6 -76441065#1 76441385#1 -258787159#2 -76442443#6 76442090#3 76441495#1 76441437#3 76441787#9 -76443312#2 -362066956 76442648#2 -305807458#2 362066955#4 76441234#2 76442583#4 76441065#2 76442079#2 258787159#4 -76441787#0 -362066955#4 -76443747#2 152627338#0 -258787159#6 76441531#2 76442090#3 76441385#3 76445041#4 305807458#2 76419221#0 76443031#1 76441531#0 -76441958#2 -76442090#3 -76441531#1 -76445041#2 76442443#2 76441141#5 -76442443#0 -76442443#1 -76443372#4 76441958#3 -76442583#2 -76443355#3" />
    <trip id="34" depart="3.40" from="76441067#1" to="-76441904" via="-76445041#6 362066955#3 76441958#3 76441787#5 362066955#1 362066955#0 -76443747#0 76443747#1 76441958#4 76443176#3 76443176#4 -76442583#4 76443372#3 76442648#2 -76441437#3 76441385#0 -362066955#5 76441141#0 152673567#1 -76442443#7 -258787159#3 367636030#0 76441531#4 -76443747#3 76445041#1 -305807458#0 -76443261 76441807#1 -76442648#2 -76442443#8 -76443355#3 -76441385#3 76441807#3 361431608#2 76443355#3 76442443#0 -76441787#4 76442090#2 -76445041#5 76443372#1 -76441787#5 76441141#5 76419221#1 -76441958#1 -76441164#5 -362066955#5 76441202#0 -258787159#7 76443031#1 -76441958#4" />
    <trip id="35" depart="3.50" from="76442079#0" to="-76443372#7" via="-76442648#0 76441526 76441437#0 -76443587 -362066953 -258787159#5 76443747#0 -76441164#4 76441141#5 76445041#1 -305807458#2 76443587 76441365#1 -76443156#2 76443355#0 258787159#1 300719826 -76442443#1 76442079#0 361431608#3 -76441437#0 -76441787#4 76441065#0 76443747#0 -76443372#2 76441807#3 76441067#2 76442443#0 76441385#2 76441482#2 -76442443#5 76442443#4 -305807458#0 76441531#6 367636030#0 152673567#1 361431608#1 -76442150 76441385#3 76442648#0 -76441067#3 -76419221#1 76442018#1 76441065#1 -76441202#1 -76442090#3 76443031#1 76442443#1 258787159#3 76441807#2" />
    <trip id="36" depart="3.60" from="-76442583#1" to="-76441764" via="-76441807#0 -76443372#2 -362066955#0 76442648#0 -362066955#3 76442471#3 76442583#3 76441141#2 -76441385#2 76441958#3 -76442583#0 -305807458#0 76441065#1 -76445041#2 -76441164#3 76441164#2 76441437#0 76442583#3 -76441067#2 76443031#1 -76441065#1 -76443747#1 -76442090#3 76443355#2 76441164#4 76419487 -76441807#0 -76441787#8 -76442443#7 76441141#1 362066955#5 76441234#0 76443176#0 -76443587 76441526 -76442443#1 76441065#1 -76441787#6 76442443#10 -361431608#1 -76442079#0 -76442443#7 -76441067#0 76442648#1 -76445041#7 76419221#2 -76441787#9 -305807458#0 -76441531#6 76441437#0" />
    <trip id="37" depart="3.70" from="76441437#4" to="76441141#0" via="76441787#6 -76443747#0 -76441164#5 -76419221#0 76441141#2 -76441164#6 -258787159#2 76441067#0 -76441065#0 -76442443#2 -76443312#2 76441141#4 -76442471#0 76441067#0 76441202#0 258787159#4 -76419487 76441526 -76441164#8 -361431608#4 305807458#2 -76441669 -76443355#1 76443031#0 -76441958#0 76441065#2 76445041#8 300719826 361431608#0 -76441787#7 -152673567#1 -76441787#9 -76441385#3 361431608#4 -76441065#1 -76441807#0 76441234#3 76443176#0 76442443#5 258787159#6 76441787#8 76443372#8 -76442870 -76443261 76441437#0 76441495#1 -76445041#6 -305807458#2 -76445041#1 76442648#1" />
    <trip id="38" depart="3.80" from="76441365#0" to="-305807458#2" via="152627338#0 -76441234#3 -76441164#5 361431608#0 -76441164#1 -362066955#3 77699442 -76441202#0 305807458#2 -76441807#0 -76441164#4 76443156#1 305807458#2 -76441531#0 152627338#0 -76441807#0 -76442090#1 -76443372#4 -362066955#2 -76442648#2 -76441067#0 -76443747#3 -76441482#0 76443176#2 76441531#0 -152627338#1 76441482#0 -76441495#1 76441958#0 --40374 258787159#1 -152673567#1 76443372#8 305807458#0 -76441807#0 -76441958#2 -77699442 76441807#2 76441202#1 76441787#7 -76441958#1 76441141#2 -367636030#1 76441141#5 -76419221#0 76443312#0 76441437#0 76441531#5 -305807458#2 -76441531#1" />
    <trip id="39" depart="3.90" from="-362066955#0" to="-76443747#0" via="-362066956 76441065#2 258787159#7 -76445041#4 76442443#2 -76442018#1 -76442090#1 -76441385#2 76443176#5 76441787#5 362066953 -76442443#0 -76441067#2 76441807#2 361431608#2 -76443747#0 -76441234#3 76441807#1 -76443747#3 -76441067#0 -305807458#0 76442443#2 76441958#4 -76443156#1 -362066955#2 76441234#1 -76443355#2 76443747#0 76441067#2 361431608#1 -305807458#0 -76443156#0 -76443312#1 -76441531#1 76441141#2 76441531#5 76441495#2 76445041#0 -76443747#1 76442443#9 76441202#1 76442870 -76441067#1 76441065#0 361431608#3 76443355#3 76441065#2 76443372#8 -305807458#2 -76442648#0" />
    <trip id="40" depart="4.00" from="76443176#5" to="-76441904" via="76441385#0 -76441807#0 76445041#4 -76441385#2 76443372#3 -76441437#2 76441164#7 -367636030#1 76441067#2 76443031#1 -76441787#4 -76419221#2 -152673567#1 -76441234#3 305807458#0 -76441067#3 76443747#1 76445041#0 -76441787#8 76441202#1 76442648#0 76445041#7 -76443355#1 -76441067#0 -76445041#5 -76441958#3 -76441234#3 77699442 -76443747#0 76441067#1 76442443#8 -76441958#4 76442079#0 -76441067#3 76443156#0 -77699442 -76441773 -76441164#5 362066955#1 76441694#1 -76442583#1 300719826 76441067#0 -76441202#1 -76441164#7 76441437#0 -76441164#4 -76442090#1 -76441787#1 -76442443#0" />
    <trip id="41" depart="4.10" from="-76443747#1" to="76443747#0" via="-76441694#1 76441141#5 -76443587 76441164#5 -361431608#4 -76442471#3 76441202#0 76442443#1 -76442150 -76443355#2 -76442443#0 -76443747#2 76442079#0 76442443#3 -76445041#4 76441065#2 152627338#1 -361431608#2 76442583#3 362066955#1 -76441958#0 76441141#6 -76443355#0 -76445041#5 76443355#1 76442090#3 76442648#2 76443355#1 -76441385#2 -76442079#4 -76441164#8 76441365#2 76441141#2 76442583#1 -76443747#2 152673567#1 --40374 76443176#4 76441531#5 76445041#3 -76441067#2 -76419221#0 -76443747#1 -76443747#3 361431608#1 258787159#3 76441141#2 76443156#2 76441067#1 76441904" />
    <trip id="42" depart="4.20" from="76443747#3" to="-76442648#2" via="-76442443#2 -76442648#1 76441234#0 -361431608#3 76442471#1 -76442150 -362066955#4 -76442090#1 76441202#1 361431608#0 -76441164#0 76443587 362066955#5 -76419221#0 76442079#1 -152627338#0 76443587 -76441958#3 -362066955#3 -76442583#3 -361431608#4 76441385#0 -76441694#1 -76442648#0 305807458#2 -76443312#0 76441437#0 -76443747#2 -76441385#0 -76443355#3 76443747#1 -76442583#2 -76445041#7 76441495#0 -76441531#4 76441067#2 76441807#3 -76441437#0 -76441067#1 76441385#2 -361431608#3 -76441164#2 -76441164#6 -76442090#0 -76443747#1 76442079#4 76441141#2 -367636030#1 -76441202#0 -258787159#1" />
    <trip id="43" depart="4.30" from="-258787159#1" to="76441141#6" via="-76441202#0 -76441482#1 76443176#3 -76419487 76442090#2 -76441807#0 -76441202#0 362066955#2 -258787159#5 -76442583#2 -76441787#2 -40376 -362066956 76443747#3 -76442090#2 361431608#0 -76443747#1 -76442090#1 76442090#2 76443355#3 -76441365#3 76441141#5 -76441807#2 139108139 76443031#1 76441437#2 -76441202#1 -139108139 -76419221#1 76441065#0 76443355#0 76442090#0 -76442443#6 -76441067#2 152673567#0 76442079#2 -76445041#2 76441234#2 76443156#4 -76419487 76441065#1 -76442443#0 -76441807#2 -76441787#8 -305807458#2 -76443312#0 76445041#2 -305807458#0 76441365#2 -76442090#1" />
    <trip id="44" depart="4.40" from="-258787159#2" to="76443372#0" via="76441437#0 76441482#2 76441807#3 76442090#2 76445041#4 76441437#3 -77699442 258787159#2 -76443355#2 -76441164#1 76443176#3 76441141#1 76441482#0 -76441385#2 361431608#0 -76442090#3 76443156#0 76441164#0 367636030#0 -76442079#1 76441958#3 76443156#4 76443176#0 362066955#3 -76441385#1 --40374 76441526 76443156#3 76441141#1 -76445041#8 76441164#7 -76441385#3 76443372#7 76441669 76442090#2 -76442443#1 76443355#2 76442443#1 -76441234#0 -76441437#0 -76442443#8 76441669 76441526 -76443261 -76441385#1 -76445041#1 -76443372#6 76443031#1 -76441495#1 76445041#7" />