<?xml version="1.0"?>
<!-- generated on 2017-02-04 00:52:37.174316 by $Id: randomTrips.py 19495 2015-12-02 12:36:28Z behrisch $
  options: -n ottawa.150.roads.xml <doubleminus>r ottawa.150.routes.xml -a ottawa.150.randomTrips.xml <doubleminus>begin 0 <doubleminus>end 15.00 <doubleminus>period 0.1 <doubleminus>min-distance 0 <doubleminus>fringe-factor 1 <doubleminus>intermediate 10 -l -o ottawa.150.trips.xml
-->
<trips>
    <trip id="0" depart="0.00" from="76441164#0" to="152673567#0" via="258787159#3 76441202#1 -76442443#2 -76443312#0 -76441437#0 -77699442 -76441202#1 -76441958#2 76441531#0 -361431608#4" />
    <trip id="1" depart="0.10" from="-76441164#5" to="76441202#0" via="-258787159#6 76441067#1 76443747#3 76445041#8 -76441694#1 -76419221#0 -76441065#0 -76441385#0 362066953 -76445041#5" />
    <trip id="2" depart="0.20" from="76441787#0" to="76441437#0" via="76442443#8 76419487 -76441067#3 -76443355#3 76442471#1 -76441365#3 -76442090#2 -76443355#3 -76443156#3 361431608#1" />
    <trip id="3" depart="0.30" from="76441764" to="-76441495#2" via="361431608#1 -76442471#3 -76445041#3 76442443#8 76419221#1 76443156#2 76443372#7 -76442471#0 76441807#2 76441807#3" />
    <trip id="4" depart="0.40" from="-76442583#3" to="-76441234#3" via="76443372#4 76442648#2 76441202#0 -76443372#5 -76441787#1 -76442443#4 -305807458#2 -76441958#1 -76441787#5 -76443312#2" />
    <trip id="5" depart="0.50" from="305807458#0" to="76441787#6" via="-76442443#9 76441807#2 -76441437#0 -362066955#4 76443156#4 362066955#0 76441141#5 -76443372#1 76442443#5 76441164#7" />
    <trip id="6" depart="0.60" from="-362066955#2" to="76441385#0" via="300719826 -76442018#0 76442443#7 -76441807#0 -76441807#1 76443747#3 76441787#7 -76445041#8 -76442648#2 -76442443#0" />
    <trip id="7" depart="0.70" from="361431608#1" to="76441958#1" via="-258787159#4 -258787159#7 76441202#0 76442443#6 361431608#4 76441385#3 -76443372#3 -258787159#4 76443747#1 -76443156#3" />
    <trip id="8" depart="0.80" from="-76441164#3" to="76441958#2" via="76441531#2 76441065#1 76441787#6 -76441385#1 -76441787#2 361431608#1 76443355#0 -361431608#2 -76442443#0 -76442443#1" />
    <trip id="9" depart="0.90" from="76419221#0" to="76442443#2" via="-76441385#2 -76443156#0 76442583#0 -76443747#2 76441787#10 76443031#2 -76441807#2 76442018#0 -76443261 -76442079#0" />
    <trip id="10" depart="1.00" from="-76441807#0" to="76441067#2" via="76443312#0 76445041#1 -258787159#4 -76443747#1 -152673567#1 -76441807#0 76441141#2 -76443355#3 -258787159#1 76441164#8" />
    <trip id="11" depart="1.10" from="-76419221#1" to="-76442471#1" via="-76442648#2 -76442648#2 -76441807#0 300719826 76441202#1 -76441067#2 76441365#3 76443372#7 -361431608#1 -76442090#0" />
    <trip id="12" depart="1.20" from="76443031#1" to="-76441234#1" via="76441437#2 152627338#0 362066955#3 152673567#0 76441437#3 76441385#3 361431608#0 76441202#0 -76441234#2 -76441662" />
    <trip id="13" depart="1.30" from="152673567#1" to="362066955#2" via="-76441531#0 -367636030#1 -258787159#1 76442443#8 76443355#1 -76441365#2 76441807#2 76442443#3 -76445041#0 -76441065#1" />
    <trip id="14" depart="1.40" from="152673567#0" to="76419221#1" via="76443587 76443747#0 76442471#3 76443312#0 -76442583#0 -76441234#2 76441385#1 76441067#3 -152627338#1 76441067#3" />
    <trip id="15" depart="1.50" from="-152673567#1" to="76442443#3" via="-367636030#1 -76442648#2 76442443#1 76442471#1 -76441437#0 76443176#3 76441202#1 -76441385#3 -76442648#2 -76441482#0" />
    <trip id="16" depart="1.60" from="76441437#0" to="-76442443#10" via="76441437#0 -76419221#1 -76441958#3 -76443747#3 -362066954 -76442648#1 76442443#2 -76442079#0 -76442090#3 -362066955#3" />
    <trip id="17" depart="1.70" from="-321748518" to="-76442443#8" via="139108139 76441437#3 -76443355#1 -76441437#0 -76441807#2 76441164#6 -76441807#1 -76441164#0 -305807458#0 76445041#6" />
    <trip id="18" depart="1.80" from="-258787159#1" to="-76442648#0" via="-76442443#2 76443747#2 76441202#0 76441437#0 76441495#0 -76445041#6 -76442443#3 76443372#7 -362066955#5 362066953" />
    <trip id="19" depart="1.90" from="-76442079#3" to="-76441787#0" via="76441365#3 361431608#3 -76443372#1 -76441067#1 -76441787#5 -76441067#1 76442079#4 76442870 -76442150 -362066955#1" />
    <trip id="20" depart="2.00" from="-305807458#2" to="361431608#3" via="76441067#3 -76442471#2 76441694#1 -76441067#1 -76445041#1 -76441787#5 -76441437#3 -76441067#2 -76442648#0 -258787159#3" />
    <trip id="21" depart="2.10" from="-76441773" to="76442471#4" via="76441141#2 362066955#3 -76441385#2 76419221#0 -76442583#0 76419487 -76442443#0 76443156#0 -362066955#2 -139108139" />
    <trip id="22" depart="2.20" from="76443372#1" to="76443156#4" via="-76441807#0 76419221#0 76441141#1 -76443747#3 362066955#5 76445041#7 362066955#1 76441385#0 258787159#7 76443587" />
    <trip id="23" depart="2.30" from="-76419221#0" to="76442960" via="76443747#3 -76442443#8 -76443355#2 76442443#3 -362066955#4 76441437#0 76441437#4 -361431608#2 -76419221#0 -76442583#3" />
    <trip id="24" depart="2.40" from="-76442079#0" to="76442079#2" via="-76443372#7 76442150 76442443#3 -76443372#5 76443312#0 76443312#2 76442443#3 -152673567#0 361431608#0 76441482#2" />
    <trip id="25" depart="2.50" from="76443372#7" to="76441482#1" via="76442870 -76441234#2 -76443747#3 -362066955#5 76441164#6 -152673567#0 367636030#0 76442090#1 76443031#2 -76441234#1" />
    <trip id="26" depart="2.60" from="77699442" to="76443176#0" via="76441807#1 -76441067#3 76442443#6 76441365#2 -321748518 258787159#6 76443372#3 76443747#3 152673567#1 -76443156#1" />
    <trip id="27" depart="2.70" from="76443372#3" to="362066955#1" via="76443747#1 -76441437#0 76442443#8 76443372#6 -76441385#3 76443156#1 76442018#0 76443031#2 76442079#3 76442443#3" />
    <trip id="28" depart="2.80" from="-76441067#2" to="-362066954" via="-76443355#2 362066955#3 -76441437#0 -76442443#2 76441773 -361431608#2 76441526 -76443587 -76441067#1 76442648#2" />
    <trip id="29" depart="2.90" from="76442443#10" to="76441437#2" via="-362066953 76442648#1 76441067#1 -76441385#1 76441234#1 139108139 -362066954 76443372#7 361431608#0 361431608#0" />
    <trip id="30" depart="3.00" from="-76443372#4" to="76441141#4" via="-76442090#3 -258787159#6 305807458#0 76443156#4 -76441669 -76441787#8 -76441807#0 76441164#5 76441067#2 76442079#0" />
    <trip id="31" depart="3.10" from="-76441437#1" to="76441067#0" via="305807458#2 76443031#0 76441773 -76441067#0 76441141#3 -258787159#3 -76441807#2 -305807458#2 -76442471#0 -76441234#1" />
    <trip id="32" depart="3.20" from="-76442648#1" to="76441365#1" via="-76443355#0 362066955#4 76441437#0 76441482#0 -76441787#8 76442090#0 76443031#1 -361431608#4 -76419221#0 76441958#0" />
    <trip id="33" depart="3.30" from="76441067#3" to="-76441385#3" via="-76441202#1 -76441958#0 -76441164#2 76442018#0 76442443#8 -76442090#3 -258787159#4 -76441807#1 76441669 -76445041#7" />
    <trip id="34" depart="3.40" from="-362066955#1" to="-76442090#0" via="76441385#2 152627338#0 76441202#0 -76441385#1 258787159#5 76442648#0 -76419221#0 -76443747#3 76443355#1 152627338#0" />
    <trip id="35" depart="3.50" from="76443372#8" to="76441067#0" via="-361431608#0 -76442090#3 258787159#1 362066955#5 76442443#5 -76443372#5 -76442443#8 258787159#2 -76442583#2 -76441164#3" />
    <trip id="36" depart="3.60" from="76441164#8" to="-76441385#3" via="76443176#0 76441065#0 -361431608#0 76419487 -76419221#0 76442583#0 76441482#1 76441141#5 76443031#0 76441141#4" />
    <trip id="37" depart="3.70" from="76443312#1" to="76441773" via="76441807#1 -76441958#4 76441437#0 76441385#3 76443747#3 76441482#1 -362066953 76441065#2 361431608#3 139108139" />
    <trip id="38" depart="3.80" from="76442443#7" to="-76441164#4" via="76442090#0 362066953 76443747#1 -76441234#0 -76441787#0 -139108139 76441234#3 76445041#5 361431608#4 -362066955#4" />
    <trip id="39" depart="3.90" from="76442471#3" to="77699442" via="-76443747#0 -76441385#3 76441141#6 -305807458#0 76442443#8 -76443372#8 -76441807#2 76441773 -76441385#1 -76441065#0" />
    <trip id="40" depart="4.00" from="-305807458#0" to="--46438" via="-361431608#0 76441958#3 -76442583#2 -76443355#3 -76443156#0 258787159#4 -76443747#3 76443176#1 -76442018#0 76443176#2" />
    <trip id="41" depart="4.10" from="76441531#7" to="76443355#3" via="76443031#1 362066955#5 76441385#3 -76441787#5 -76443747#0 -76445041#8 76443176#0 76441065#2 -362066955#5 76442648#1" />
    <trip id="42" depart="4.20" from="-76442079#0" to="76441669" via="-361431608#2 76441437#0 -361431608#3 76443156#3 152627338#1 -76441787#5 76441385#3 -76442443#3 76442583#3 76442443#8" />
    <trip id="43" depart="4.30" from="76443156#4" to="76443372#1" via="76445041#2 361431608#3 76442079#2 362066956 -76443747#3 -76419221#0 362066955#3 76443747#0 -76441234#3 --46438" />
    <trip id="44" depart="4.40" from="-76441234#2" to="76441904" via="-76443355#0 -76443156#0 361431608#1 258787159#3 -76442090#0 77699442 -76441067#0 -362066955#2 76442079#0 -76443747#3" />
    <trip id="45" depart="4.50" from="-76441234#3" to="76443747#0" via="152673567#1 -76443587 -76419221#0 76443031#0 -76441202#1 361431608#3 -152673567#0 76443156#4 -76445041#7 76441065#0" />
    <trip id="46" depart="4.60" from="76442443#1" to="76442648#0" via="362066955#0 76442090#0 76442471#2 76442079#4 76442150 -76443587 76441164#8 305807458#2 76441141#5 -76442018#1" />
    <trip id="47" depart="4.70" from="305807458#0" to="-76442443#0" via="76442090#1 76441065#0 76445041#2 76441807#3 -76441787#9 76441787#0 76441202#1 76443176#5 -76441958#4 76441773" />
    <trip id="48" depart="4.80" from="-76443156#2" to="-76441365#1" via="76443031#0 -361431608#0 76443747#3 76441164#2 -76441067#0 76442443#0 -76443747#2 76441787#10 76443176#0 76441141#3" />
    <trip id="49" depart="4.90" from="76443372#1" to="-76441067#2" via="76419221#0 -76443355#2 258787159#5 76441958#1 76443031#2 76441437#0 76443031#0 -76441482#1 -77699442 362066955#2" />
    <trip id="50" depart="5.00" from="-321748518" to="76441141#4" via="-76441787#10 -76443156#1 76441958#2 -76441067#0 76443747#1 76443156#4 76441067#0 -76441526 -76443355#3 76442648#0" />
    <trip id="51" depart="5.10" from="361431608#3" to="76441531#5" via="-305807458#2 76441807#2 76443176#5 -76441787#9 -305807458#2 362066955#3 -76443747#0 -258787159#5 76441807#3 361431608#3" />
    <trip id="52" depart="5.20" from="76441531#4" to="76441773" via="-76442583#0 -76442583#0 -76443156#2 -362066955#4 76443355#1 -76443372#2 76442960 76441787#1 -305807458#2 -76441787#2" />
    <trip id="53" depart="5.30" from="76441437#0" to="-76442471#0" via="76442090#3 -76443355#2 305807458#0 305807458#2 76441958#0 76445041#3 -76441164#2 76442583#1 -76441164#1 --46438" />
    <trip id="54" depart="5.40" from="-76441164#4" to="76442443#0" via="-76443355#2 -76441067#1 76443156#4 305807458#0 361431608#2 76442443#6 76441531#0 76443355#2 76442648#1 76441437#0" />
    <trip id="55" depart="5.50" from="76443355#1" to="76441141#2" via="76445041#4 -76441437#0 305807458#2 362066954 76441807#1 -152627338#0 76441164#2 -76441365#3 -76441234#3 152627338#0" />
    <trip id="56" depart="5.60" from="76441067#1" to="76441787#2" via="76441385#1 76443372#1 76441437#0 76443355#1 76441385#3 152673567#0 -76443355#3 -76441482#0 -258787159#1 -76441385#0" />
    <trip id="57" depart="5.70" from="76442090#1" to="-152673567#1" via="76442443#2 305807458#0 -152627338#1 76443176#0 -76442443#8 76442648#2 -76441164#6 -77699442 76441067#1 -76441787#3" />
    <trip id="58" depart="5.80" from="76441437#0" to="-76441234#3" via="76443747#3 -76419221#0 76441065#2 300719826 -76441787#5 -258787159#4 -361431608#4 362066955#1 -76441531#1 -362066955#3" />
    <trip id="59" depart="5.90" from="76441164#2" to="-76441817" via="-76442443#8 -362066955#0 -76443355#0 76442079#1 362066955#3 -76442443#2 -76445041#8 76443031#1 76445041#5 76441437#3" />
    <trip id="60" depart="6.00" from="76441067#2" to="76441807#1" via="76443355#1 76443031#0 76441787#6 76441773 -76442443#6 -76442648#0 76443355#2 -76419221#2 76442443#3 -76442443#1" />
    <trip id="61" depart="6.10" from="-76442150" to="76441234#2" via="76441787#10 76441904 76441787#5 -76442870 -77699442 -76443355#1 76441807#3 -76441531#1 76441385#1 76443355#1" />
    <trip id="62" depart="6.20" from="76443747#3" to="-76441531#0" via="-76442583#0 76443312#0 -258787159#3 76441958#1 -76441365#3 362066955#5 -76442648#0 -76441437#2 -152627338#0 -76441067#0" />
    <trip id="63" depart="6.30" from="-76441164#5" to="-362066955#2" via="-76442443#8 -76441065#1 76441067#3 76442648#0 -362066953 76441385#0 76441385#2 76441787#8 -76441669 -152627338#0" />
    <trip id="64" depart="6.40" from="-362066955#2" to="305807458#0" via="-76443747#3 76443176#5 -305807458#0 -362066955#4 76441437#0 -76441202#1 -76419221#0 76441482#2 -258787159#7 -76442583#2" />
    <trip id="65" depart="6.50" from="362066955#5" to="139108139" via="76442471#3 76442648#1 -367636030#1 -258787159#3 -76442443#6 -76419221#2 -305807458#0 -76443747#0 -76442443#10 -305807458#2" />
    <trip id="66" depart="6.60" from="-76441531#5" to="-367636030#1" via="76441482#0 76443372#3 -76443312#0 76441531#2 -76443312#1 76441385#3 76441495#2 -76443747#0 -76441787#5 76443747#3" />
    <trip id="67" depart="6.70" from="305807458#0" to="-76443312#0" via="-362066954 -76441234#3 -76443372#1 76441164#8 -305807458#0 -76441385#1 -258787159#4 76441787#8 76443031#0 76441437#0" />
    <trip id="68" depart="6.80" from="-76442090#1" to="76443176#1" via="76441495#1 -76442443#5 76441067#0 -361431608#3 -76445041#2 362066954 76441065#1 76443747#0 76419221#0 76441787#2" />
    <trip id="69" depart="6.90" from="76419221#0" to="300719826" via="76441067#2 76441787#7 76443031#1 -76441904 -76443747#3 76443355#3 76441141#5 76442090#0 76441202#0 -76441164#1" />
    <trip id="70" depart="7.00" from="-76441787#8" to="76441385#2" via="-76442648#1 76443031#1 -76441065#1 76441531#6 -76441958#2 -76441669 76419487 76441141#2 76441164#3 76441385#0" />
    <trip id="71" depart="7.10" from="76443372#8" to="76443031#2" via="76443355#1 76443176#2 76443312#1 -76441526 76443372#8 76442090#2 76443312#0 -305807458#0 -362066955#2 -76442443#6" />
    <trip id="72" depart="7.20" from="-321748518" to="76443747#2" via="-76442870 -76443355#2 -76443372#6 -76443747#1 76442079#4 258787159#3 -76442648#0 -76441234#3 -321748518 76441234#3" />
    <trip id="73" depart="7.30" from="-76442443#3" to="76441807#1" via="-76443747#3 -76442583#2 -76442090#3 76441787#5 -76442443#4 -76441385#1 -367636030#1 76443355#0 -76441164#2 -76441437#0" />
    <trip id="74" depart="7.40" from="-76419221#0" to="-76441437#0" via="76441437#0 -258787159#4 -76442648#1 -76443372#6 76441531#1 -76443587 -76441202#0 361431608#2 76441787#8 -76441694#1" />
    <trip id="75" depart="7.50" from="76443156#2" to="76441482#1" via="-76443312#2 76442583#2 -76441773 300719826 76443372#6 76441141#4 -76442648#0 76443031#0 76441164#3 -361431608#2" />
    <trip id="76" depart="7.60" from="305807458#2" to="-76441437#0" via="76441437#0 76443747#1 258787159#7 76443355#0 -76441164#2 367636030#0 76443355#3 76441164#6 76441787#8 -139108139" />
    <trip id="77" depart="7.70" from="76445041#4" to="-76441526" via="-76445041#2 76441067#3 -76441385#3 --46438 362066955#4 -76442583#2 -76445041#1 76443031#1 -76441958#3 -362066955#1" />
    <trip id="78" depart="7.80" from="-76441437#0" to="-76441365#2" via="-76443747#0 -76442150 258787159#4 76443156#1 76442443#1 -76442079#0 76441385#0 305807458#2 -321748518 -76443312#2" />
    <trip id="79" depart="7.90" from="361431608#3" to="-76445041#6" via="152627338#1 76443156#0 -76441365#2 -76443747#3 -76442648#2 362066955#0 76443156#0 76442648#0 -76442018#0 76442443#1" />
    <trip id="80" depart="8.00" from="76419487" to="76441141#1" via="-76441807#1 -76441164#5 -76442443#2 76442443#0 -258787159#7 361431608#2 76443587 76443176#5 -76441807#1 76441958#1" />
    <trip id="81" depart="8.10" from="-76443372#1" to="-76441065#0" via="-76441807#1 76445041#3 76443176#4 76441067#1 --46438 76443156#4 -362066955#1 76441787#4 76441065#1 -76443747#2" />
    <trip id="82" depart="8.20" from="76445041#5" to="-76443156#0" via="-76442090#0 76441958#1 -76442443#10 76445041#2 -76442443#8 -76442583#2 -76441202#1 362066955#4 76441164#1 362066955#4" />
    <trip id="83" depart="8.30" from="76443355#3" to="-76442443#8" via="76441164#2 -152627338#0 76443031#2 76441904 -76443747#2 76443156#4 -76441807#0 76441807#3 76443312#2 258787159#5" />
    <trip id="84" depart="8.40" from="76441958#3" to="-76442090#1" via="76443747#1 -76443747#2 76443747#2 76441365#1 76443312#2 76441141#0 -76442648#0 152627338#0 -76442583#1 76443747#3" />
    <trip id="85" depart="8.50" from="152673567#0" to="76441437#4" via="-76441787#6 -76442090#1 258787159#1 -152627338#0 76441141#1 76441067#0 -76441669 76441065#0 76443176#0 152673567#1" />
    <trip id="86" depart="8.60" from="76441385#2" to="-76441437#0" via="-305807458#2 76441202#1 -76441067#3 76441385#3 76441141#3 -76441385#2 258787159#3 76443747#0 -76441385#1 -76441787#8" />
    <trip id="87" depart="8.70" from="76442648#0" to="361431608#4" via="76441067#2 -76442090#3 76441065#0 76441694#1 -76441958#4 361431608#4 -361431608#2 -76441662 76441437#0 -76441531#6" />
    <trip id="88" depart="8.80" from="76442471#0" to="258787159#6" via="300719826 76441694#1 76441385#1 -77699442 -76445041#0 76443176#0 -76441694#1 76443156#2 305807458#0 362066955#1" />
    <trip id="89" depart="8.90" from="-76442443#1" to="258787159#4" via="76442648#2 -76443747#1 76441141#6 76441787#5 -76442443#1 -76441164#3 362066955#0 76442443#8 -76441365#1 -76441437#0" />
    <trip id="90" depart="9.00" from="-76442583#0" to="76441787#5" via="76442471#2 76445041#5 76442090#3 76441067#0 76443587 -76441437#3 76442583#2 -152627338#0 -76442583#2 362066955#4" />
    <trip id="91" depart="9.10" from="-362066955#3" to="-76441817" via="76441437#1 76441807#2 76443747#0 -76442648#2 -76441067#0 -76442443#3 -258787159#5 76445041#2 -76443312#2 361431608#1" />
    <trip id="92" depart="9.20" from="258787159#4" to="76442648#0" via="76441385#3 76441065#2 -76443312#0 152673567#0 76441202#0 76442443#8 139108139 76441202#1 -76441787#6 -76441787#2" />
    <trip id="93" depart="9.30" from="-362066955#1" to="76442079#5" via="76443031#0 361431608#3 -76441958#0 76441385#0 -76441787#6 -362066955#2 -258787159#1 76443031#0 76441787#9 152627338#0" />
    <trip id="94" depart="9.40" from="-76441807#2" to="361431608#2" via="76442443#6 76441482#1 76441526 258787159#7 -76441807#2 76441694#1 76443031#2 76442443#2 -76442443#2 76419487" />
    <trip id="95" depart="9.50" from="-76441437#2" to="76442079#1" via="76441065#0 76442443#7 76442018#0 76443312#1 -76443747#2 76441904 76441365#1 -76441365#1 -76441531#0 76442090#3" />
    <trip id="96" depart="9.60" from="-76442079#5" to="-76441958#0" via="76443176#0 258787159#7 76442648#2 -362066955#1 -76441202#1 -367636030#1 76441787#6 76443312#0 -76441234#0 -258787159#5" />
    <trip id="97" depart="9.70" from="-76443747#2" to="76441526" via="76441669 152673567#0 76442018#0 -76441531#4 -76442443#4 -76445041#7 76442090#2 -76441807#1 76441202#0 76441065#1" />
    <trip id="98" depart="9.80" from="-321748518" to="76441385#2" via="76442443#1 -76441495#2 76441065#2 76442443#2 76419221#0 76441531#7 -76442090#3 76441787#1 -76441365#1 -76441437#0" />
    <trip id="99" depart="9.90" from="-76442648#1" to="76442443#6" via="76441202#0 76441202#1 -76441234#1 -76441385#2 362066955#2 76419487 76443312#3 76441234#1 76443031#2 76441904" />
    <trip id="100" depart="10.00" from="258787159#2" to="-76443747#3" via="-76442583#3 76441773 76441141#0 258787159#4 76443031#0 -76443747#1 -305807458#2 -361431608#1 -305807458#2 76441141#1" />
    <trip id="101" depart="10.10" from="76441787#10" to="76441437#0" via="76443176#2 76443355#1 -76442583#0 -76442090#3 -76441365#3 76442443#1 76441385#1 -76442150 -258787159#1 -77699442" />
    <trip id="102" depart="10.20" from="-76441807#0" to="-321748518" via="76443312#0 -76441164#6 -76441787#6 76441495#2 -76441202#1 -76441807#0 76443355#2 76443355#0 305807458#2 -76441787#9" />
    <trip id="103" depart="10.30" from="-76443372#3" to="-76441067#0" via="-76441958#0 76442150 258787159#1 -76443747#0 76443747#1 -76441234#2 -76419221#0 76443747#2 -305807458#2 -76443747#2" />
    <trip id="104" depart="10.40" from="-76445041#2" to="76442090#0" via="76441787#7 76441202#0 76419487 -76441787#1 -76441202#0 76442443#1 -76443355#1 76441067#2 361431608#4 -76441904" />
    <trip id="105" depart="10.50" from="76441141#4" to="-152627338#1" via="76443176#2 -76441202#0 76442648#0 --46438 -76442090#1 -76442648#1 367636030#0 -362066955#0 76442079#1 76445041#4" />
    <trip id="106" depart="10.60" from="76441958#3" to="76443747#3" via="76442018#0 -77699442 -258787159#1 -76443372#0 152673567#1 76442583#2 -76442443#0 76443031#0 -76442648#1 -76441495#2" />
    <trip id="107" depart="10.70" from="-76442870" to="76441773" via="76441787#7 --46438 -361431608#3 76442443#0 -76441202#1 76441164#0 76441141#3 76441385#3 76441141#4 -76443372#2" />
    <trip id="108" depart="10.80" from="76419221#0" to="76441202#1" via="-76442471#0 76443312#1 -76443372#3 -76441787#7 -76441385#3 76441141#5 -76441234#2 -76442443#7 76441065#0 -76441807#2" />
    <trip id="109" depart="10.90" from="-76442443#10" to="76441141#3" via="76442471#2 -76442090#2 76441958#3 -76442090#3 -152673567#1 -361431608#4 76441164#7 76441234#1 -76443261 76441164#4" />
    <trip id="110" depart="11.00" from="-76442471#4" to="-362066954" via="-76442443#3 76443355#2 -362066955#5 76441531#4 -362066955#0 76441495#1 -76441958#3 76443372#0 76441067#3 76441065#0" />
    <trip id="111" depart="11.10" from="-76441773" to="76442090#3" via="-76443372#2 -76442443#2 367636030#0 -76441531#0 152627338#0 -76442648#0 362066955#0 -258787159#3 361431608#4 -76445041#4" />
    <trip id="112" depart="11.20" from="362066955#3" to="361431608#0" via="76443372#3 76441669 152627338#0 76441385#2 -76442583#2 76443176#3 -76441385#0 76441067#3 77699442 362066956" />
    <trip id="113" depart="11.30" from="-321748518" to="76443156#4" via="-76442150 76441669 76443312#1 76442090#3 76443312#3 -76441531#7 76419487 -76442443#6 258787159#7 -76442443#10" />
    <trip id="114" depart="11.40" from="76441787#3" to="-76442648#2" via="-76445041#1 -76441437#4 76441958#1 -76443156#1 76441164#0 76443031#2 -76443747#2 -258787159#2 -76441385#3 76443372#3" />
    <trip id="115" depart="11.50" from="-76442079#2" to="76443156#4" via="76441141#0 305807458#0 76443747#0 -76442443#2 -76442079#4 76441904 -76441067#1 76441787#6 76443156#0 76443176#4" />
    <trip id="116" depart="11.60" from="-76442443#0" to="-76441526" via="-76441067#1 -76443312#0 362066955#2 76441141#2 -76443372#3 76441437#0 -76443156#1 76441141#5 -76419221#0 -76441958#3" />
    <trip id="117" depart="11.70" from="76419221#2" to="152627338#0" via="-76419221#0 362066954 76445041#5 -76443587 76441787#3 76441141#0 -76441904 76441141#6 -152673567#0 76443355#0" />
    <trip id="118" depart="11.80" from="76442150" to="76442150" via="-258787159#1 76442648#1 -76441065#0 76442079#3 -76441067#3 152673567#0 76443355#2 258787159#7 -362066953 -76442583#2" />
    <trip id="119" depart="11.90" from="-152627338#0" to="-76445041#1" via="-76443156#0 361431608#0 76441773 76442443#2 -258787159#3 76441531#0 -76441065#0 76441067#1 -76441807#0 362066954" />
    <trip id="120" depart="12.00" from="76441787#8" to="76441067#3" via="-76441437#0 76441234#1 362066955#4 -305807458#0 -76441437#0 76441234#3 -76441958#0 -76441787#3 -76443355#0 -76441807#0" />
    <trip id="121" depart="12.10" from="-76442090#3" to="-76442648#1" via="-362066955#1 76441141#3 -361431608#2 76441904 -76441385#1 -362066955#5 76442443#2 -76443747#1 -76442090#3 -76441234#1" />
    <trip id="122" depart="12.20" from="-258787159#4" to="76443176#2" via="-76441065#0 -305807458#0 76443747#2 76443372#3 76443355#3 -76441065#0 76443747#0 76441495#2 76442443#3 -76442870" />
    <trip id="123" depart="12.30" from="152627338#0" to="76442443#4" via="76442443#2 -321748518 -361431608#3 -76441495#0 -361431608#1 76442443#1 76443747#1 76441482#2 362066955#2 76441067#0" />
    <trip id="124" depart="12.40" from="76442443#1" to="76442443#8" via="-361431608#0 76443031#0 76441234#0 -76441067#3 -362066955#3 -76441787#0 -76443261 -76442090#1 76442443#8 -76441164#6" />
    <trip id="125" depart="12.50" from="-76442443#10" to="76442090#0" via="-76441164#8 152673567#1 -76442079#1 76443176#5 76443312#3 76442090#2 -76441662 -76443355#1 76443355#2 -76441065#0" />
    <trip id="126" depart="12.60" from="-76441067#1" to="76443312#3" via="76443372#7 -76443261 -76441437#4 76441234#2 76442648#2 258787159#1 76441526 -76443747#1 -76443355#3 76441067#1" />
    <trip id="127" depart="12.70" from="76441164#4" to="-76441202#0" via="-76443747#1 76445041#0 258787159#7 -76441234#1 76443156#4 76441164#6 -76441807#1 76443176#3 -76441202#0 361431608#0" />
    <trip id="128" depart="12.80" from="-76441202#1" to="76443355#0" via="-76441482#0 76443747#3 362066954 -76441437#4 76441787#5 76441067#0 152627338#1 -76441385#3 76441141#2 76442090#1" />
    <trip id="129" depart="12.90" from="-76441067#0" to="-77699442" via="-76441067#1 76441164#3 258787159#1 -76441164#7 76441141#6 76442648#2 -76441904 300719826 76443372#7 76441385#1" />
    <trip id="130" depart="13.00" from="76441065#1" to="76442443#5" via="76443372#4 76443176#1 76442471#3 -76445041#1 76441807#2 -76441067#3 76443031#0 -76441065#1 76443747#0 -76441234#3" />
    <trip id="131" depart="13.10" from="-76441065#0" to="258787159#5" via="-76442443#9 -76442079#0 -362066956 76443747#3 362066955#0 -76441958#4 76441531#4 76443176#5 76441531#1 -76441437#2" />
    <trip id="132" depart="13.20" from="76441787#7" to="76441067#3" via="-76441531#1 -76441065#1 -76441437#2 76441385#3 76443176#3 -76441067#0 -76441437#0 -76441437#2 76442583#0 152627338#0" />
    <trip id="133" depart="13.30" from="76441065#2" to="-76442443#2" via="76441164#6 76443372#7 76441067#3 305807458#2 --46438 -76442648#1 76442583#4 -76441787#0 -76443747#1 76443747#0" />
    <trip id="134" depart="13.40" from="-76442443#10" to="-76419221#1" via="-76441202#0 76441202#0 76441904 76442648#0 -76441437#3 -258787159#2 -76441787#7 76443355#0 -76441067#1 -76443355#3" />
    <trip id="135" depart="13.50" from="-76442648#0" to="-76443355#0" via="-76442079#0 76441437#0 -76441365#1 -305807458#2 152627338#1 76443747#1 -76443372#5 362066955#1 76443031#2 76443587" />
    <trip id="136" depart="13.60" from="361431608#0" to="361431608#2" via="-76441807#0 76441385#3 -76441694#1 -76443747#2 76441141#0 -76441787#3 -76441669 76441531#7 -76442079#2 139108139" />
    <trip id="137" depart="13.70" from="-76442079#4" to="258787159#7" via="-305807458#2 -76442443#2 76441787#1 -258787159#6 -76441787#0 76441067#3 152627338#1 76441141#4 -76443355#2 76445041#5" />
    <trip id="138" depart="13.80" from="-76443355#1" to="-76442090#1" via="76441141#6 76442090#3 76441234#3 -76441365#3 -76441234#2 -362066955#2 -76441067#2 -76443747#2 76443031#2 76441531#2" />
    <trip id="139" depart="13.90" from="-361431608#3" to="-76441495#1" via="76441067#2 -305807458#0 -76441365#2 152627338#1 -76441787#10 76441067#1 367636030#0 76441385#3 -362066955#5 -76442583#2" />
    <trip id="140" depart="14.00" from="76443176#1" to="362066954" via="76443372#1 76445041#6 76441495#1 -258787159#2 -76441437#2 -76443261 76441669 -76441787#10 -76443747#0 76441067#2" />
    <trip id="141" depart="14.10" from="76443212" to="76442018#0" via="-258787159#2 76441787#1 -76441437#0 -76442090#3 -76442090#2 -76441904 76441365#3 -76441807#1 76442443#9 361431608#1" />
    <trip id="142" depart="14.20" from="-76442443#3" to="258787159#6" via="-76441065#0 76443031#2 -76441787#6 76442648#1 -321748518 76442583#0 361431608#2 -76441067#0 76442471#0 76441065#0" />
    <trip id="143" depart="14.30" from="76441067#1" to="76441385#3" via="361431608#0 76441067#0 76441365#1 76443355#1 -76441065#1 76443747#2 -76443747#3 -76443156#2 76419221#0 -76441202#1" />
    <trip id="144" depart="14.40" from="76442471#2" to="-367636030#1" via="305807458#0 305807458#2 -76442648#2 300719826 76442443#8 76442443#1 -76441904 -76441067#0 76442471#2 76441234#2" />
    <trip id="145" depart="14.50" from="76441787#9" to="76442079#5" via="76441385#1 -152673567#1 76441164#6 -76441365#2 -76442648#1 -305807458#2 76441234#2 -76441787#3 362066955#4 76443031#1" />
    <trip id="146" depart="14.60" from="76419221#0" to="76441531#1" via="361431608#1 -76441365#3 -76442018#1 -76441662 -76442090#0 76445041#1 -76442648#0 -76441385#2 -152673567#1 -76442471#1" />
    <trip id="147" depart="14.70" from="--46438" to="-76441669" via="-76441662 -76441385#1 -361431608#4 76443156#1 -76443355#1 76441202#0 -76443372#4 76443312#0 -305807458#2 -76441495#2" />
    <trip id="148" depart="14.80" from="-76445041#6" to="-76442443#2" via="76442583#2 -76442583#2 -76441067#3 362066955#5 -258787159#1 76442648#0 76443176#1 -76443747#1 76442443#3 258787159#6" />
    <trip id="149" depart="14.90" from="76441164#8" to="-76441807#2" via="-76442150 -305807458#2 76441065#0 -76441526 -76441958#2 76441067#0 76442960 -76443156#3 76443156#4 76442443#0" />
    <trip id="150" depart="15.00" from="-76441067#1" to="-76442443#0" via="-76443372#4 76419487 -361431608#2 258787159#7 76442079#0 76442079#2 -76441807#0 -76442079#3 76419487 -76442443#6" />
</trips>
