<?xml version="1.0" encoding="UTF-8"?>

<!-- generated on Thu Mar 30 18:32:25 2017 by SUMO netconvert Version 0.25.0D
<?xml version="1.0" encoding="UTF-8"?>

<configuration xmlns:xsi="http://www.w3.org/2001/XMLSchema-instance" xsi:noNamespaceSchemaLocation="http://sumo.dlr.de/xsd/netconvertConfiguration.xsd">

    <input>
        <type-files value="/home/felipe/Simulation/sumo-0.25.0/data/typemap/osmNetconvert.typ.xml"/>
        <osm-files value="ottawa.osm"/>
    </input>

    <output>
        <output-file value="ottawa.net.xml"/>
    </output>

    <projection>
        <proj.utm value="true"/>
    </projection>

    <tls_building>
        <tls.guess value="false"/>
        <tls.join value="true"/>
        <tls.guess-signals value="true"/>
    </tls_building>

    <edge_removal>
        <remove-edges.by-vclass value="truck,tram,rail_urban,rail,rail_electric,hov,taxi,bus,delivery,motorcycle,bicycle,pedestrian"/>
        <remove-edges.isolated value="true"/>
    </edge_removal>

    <processing>
        <no-turnarounds value="true"/>
        <no-turnarounds.tls value="true"/>
        <geometry.remove value="true"/>
    </processing>

    <report>
        <verbose value="true"/>
    </report>

</configuration>
-->

<net version="0.25" xmlns:xsi="http://www.w3.org/2001/XMLSchema-instance" xsi:noNamespaceSchemaLocation="http://sumo.dlr.de/xsd/net_file.xsd">

    <location netOffset="-446354.24,-5029721.50" convBoundary="0.00,0.00,877.68,1912.84" origBoundary="-75.685699,45.419008,-75.674581,45.436206" projParameter="+proj=utm +zone=18 +ellps=WGS84 +datum=WGS84 +units=m +no_defs"/>

    <type id="highway.bridleway" priority="1" numLanes="1" speed="2.78" allow="pedestrian" oneway="1" width="2.00"/>
    <type id="highway.bus_guideway" priority="1" numLanes="1" speed="8.33" allow="bus" oneway="1"/>
    <type id="highway.cycleway" priority="1" numLanes="1" speed="5.56" allow="bicycle" oneway="0" width="1.00"/>
    <type id="highway.footway" priority="1" numLanes="1" speed="8.33" allow="pedestrian" oneway="1" width="2.00"/>
    <type id="highway.ford" priority="1" numLanes="1" speed="2.78" allow="army" oneway="0"/>
    <type id="highway.living_street" priority="3" numLanes="1" speed="2.78" disallow="tram rail_urban rail rail_electric ship" oneway="0"/>
    <type id="highway.motorway" priority="13" numLanes="2" speed="44.44" allow="private emergency authority army vip passenger hov taxi bus coach delivery truck trailer motorcycle evehicle custom1 custom2" oneway="1"/>
    <type id="highway.motorway_link" priority="12" numLanes="1" speed="22.22" allow="private emergency authority army vip passenger hov taxi bus coach delivery truck trailer motorcycle evehicle custom1 custom2" oneway="1"/>
    <type id="highway.path" priority="1" numLanes="1" speed="2.78" allow="bicycle pedestrian" oneway="1" width="2.00"/>
    <type id="highway.pedestrian" priority="1" numLanes="1" speed="8.33" allow="pedestrian" oneway="1" width="2.00"/>
    <type id="highway.primary" priority="9" numLanes="2" speed="27.78" disallow="tram rail_urban rail rail_electric ship" oneway="0"/>
    <type id="highway.primary_link" priority="8" numLanes="1" speed="22.22" disallow="tram rail_urban rail rail_electric ship" oneway="0"/>
    <type id="highway.raceway" priority="14" numLanes="2" speed="83.33" allow="vip" oneway="0"/>
    <type id="highway.residential" priority="4" numLanes="1" speed="13.89" disallow="tram rail_urban rail rail_electric ship" oneway="0"/>
    <type id="highway.secondary" priority="7" numLanes="2" speed="27.78" disallow="tram rail_urban rail rail_electric ship" oneway="0"/>
    <type id="highway.secondary_link" priority="6" numLanes="1" speed="22.22" disallow="tram rail_urban rail rail_electric ship" oneway="0"/>
    <type id="highway.service" priority="2" numLanes="1" speed="5.56" allow="delivery bicycle pedestrian" oneway="0"/>
    <type id="highway.services" priority="1" numLanes="1" speed="8.33" disallow="tram rail_urban rail rail_electric ship" oneway="0"/>
    <type id="highway.stairs" priority="1" numLanes="1" speed="1.39" allow="pedestrian" oneway="1" width="2.00"/>
    <type id="highway.step" priority="1" numLanes="1" speed="1.39" allow="pedestrian" oneway="1" width="2.00"/>
    <type id="highway.steps" priority="1" numLanes="1" speed="1.39" allow="pedestrian" oneway="1" width="2.00"/>
    <type id="highway.tertiary" priority="6" numLanes="1" speed="22.22" disallow="tram rail_urban rail rail_electric ship" oneway="0"/>
    <type id="highway.tertiary_link" priority="5" numLanes="1" speed="22.22" disallow="tram rail_urban rail rail_electric ship" oneway="0"/>
    <type id="highway.track" priority="1" numLanes="1" speed="5.56" disallow="tram rail_urban rail rail_electric ship" oneway="0"/>
    <type id="highway.trunk" priority="11" numLanes="2" speed="27.78" disallow="tram rail_urban rail rail_electric bicycle pedestrian ship" oneway="0"/>
    <type id="highway.trunk_link" priority="10" numLanes="1" speed="22.22" disallow="tram rail_urban rail rail_electric bicycle pedestrian ship" oneway="0"/>
    <type id="highway.unclassified" priority="5" numLanes="1" speed="13.89" disallow="tram rail_urban rail rail_electric ship" oneway="0"/>
    <type id="highway.unsurfaced" priority="1" numLanes="1" speed="8.33" disallow="tram rail_urban rail rail_electric ship" oneway="0"/>
    <type id="railway.light_rail" priority="15" numLanes="1" speed="27.78" allow="rail_urban" oneway="1"/>
    <type id="railway.preserved" priority="15" numLanes="1" speed="27.78" allow="rail" oneway="1"/>
    <type id="railway.rail" priority="15" numLanes="1" speed="83.33" allow="rail rail_electric" oneway="1"/>
    <type id="railway.subway" priority="15" numLanes="1" speed="27.78" allow="rail_urban" oneway="1"/>
    <type id="railway.tram" priority="15" numLanes="1" speed="13.89" allow="tram" oneway="1"/>

    <edge id=":-35202_0" function="internal">
        <lane id=":-35202_0_0" index="0" disallow="tram rail_urban rail rail_electric ship" speed="18.05" length="4.90" shape="669.27,1767.53 668.79,1766.33 668.03,1765.50 666.98,1765.05 665.65,1764.97"/>
    </edge>
    <edge id=":-35202_1" function="internal">
        <lane id=":-35202_1_0" index="0" disallow="tram rail_urban rail rail_electric ship" speed="22.22" length="8.05" shape="669.27,1767.53 669.13,1758.78"/>
        <lane id=":-35202_1_1" index="1" disallow="tram rail_urban rail rail_electric ship" speed="22.22" length="8.05" shape="672.48,1766.76 672.36,1759.43"/>
    </edge>
    <edge id=":-35202_3" function="internal">
        <lane id=":-35202_3_0" index="0" disallow="tram rail_urban rail rail_electric ship" speed="22.22" length="5.21" shape="678.84,1760.72 678.90,1765.22"/>
        <lane id=":-35202_3_1" index="1" disallow="tram rail_urban rail rail_electric ship" speed="22.22" length="5.21" shape="675.60,1760.07 675.69,1765.99"/>
    </edge>
    <edge id=":-35202_5" function="internal">
        <lane id=":-35202_5_0" index="0" disallow="tram rail_urban rail rail_electric ship" speed="18.05" length="2.92" shape="675.60,1760.07 674.66,1761.96 674.01,1762.44"/>
    </edge>
    <edge id=":-35202_8" function="internal">
        <lane id=":-35202_8_0" index="0" speed="18.05" length="8.89" shape="674.01,1762.44 672.69,1763.41 669.69,1764.41 665.65,1764.97"/>
    </edge>
    <edge id=":-35202_6" function="internal">
        <lane id=":-35202_6_0" index="0" disallow="tram rail_urban rail rail_electric ship" speed="18.05" length="4.83" shape="665.73,1761.66 667.02,1761.40 668.01,1760.83 668.72,1759.96 669.13,1758.78"/>
    </edge>
    <edge id=":-35202_7" function="internal">
        <lane id=":-35202_7_0" index="0" disallow="tram rail_urban rail rail_electric ship" speed="18.05" length="11.83" shape="665.73,1761.66 669.64,1761.68 672.60,1762.41 674.62,1763.85 675.69,1765.99"/>
    </edge>
    <edge id=":-35226_0" function="internal">
        <lane id=":-35226_0_0" index="0" disallow="tram rail_urban rail rail_electric ship" speed="22.22" length="9.51" shape="732.93,1323.29 732.43,1332.79"/>
        <lane id=":-35226_0_1" index="1" disallow="tram rail_urban rail rail_electric ship" speed="22.22" length="9.51" shape="729.64,1323.11 729.14,1332.61"/>
    </edge>
    <edge id=":-35226_2" function="internal">
        <lane id=":-35226_2_0" index="0" disallow="tram rail_urban rail rail_electric ship" speed="18.05" length="4.30" shape="729.64,1323.11 728.89,1325.72 727.74,1326.82"/>
    </edge>
    <edge id=":-35226_8" function="internal">
        <lane id=":-35226_8_0" index="0" speed="18.05" length="8.74" shape="727.74,1326.82 726.95,1327.58 723.83,1328.70 719.52,1329.09"/>
    </edge>
    <edge id=":-35226_3" function="internal">
        <lane id=":-35226_3_0" index="0" disallow="tram rail_urban rail rail_electric ship" speed="18.05" length="5.23" shape="719.51,1325.79 721.00,1325.59 722.08,1325.03 722.76,1324.09 723.04,1322.77"/>
    </edge>
    <edge id=":-35226_4" function="internal">
        <lane id=":-35226_4_0" index="0" disallow="tram rail_urban rail rail_electric ship" speed="18.05" length="13.47" shape="719.51,1325.79 723.86,1326.20 726.91,1327.48 728.67,1329.61 729.14,1332.61"/>
    </edge>
    <edge id=":-35226_5" function="internal">
        <lane id=":-35226_5_0" index="0" disallow="tram rail_urban rail rail_electric ship" speed="18.05" length="5.07" shape="722.54,1332.26 722.42,1330.87 721.87,1329.88 720.91,1329.28 719.52,1329.09"/>
    </edge>
    <edge id=":-35226_6" function="internal">
        <lane id=":-35226_6_0" index="0" disallow="tram rail_urban rail rail_electric ship" speed="22.22" length="9.51" shape="722.54,1332.26 723.04,1322.77"/>
        <lane id=":-35226_6_1" index="1" disallow="tram rail_urban rail rail_electric ship" speed="22.22" length="9.51" shape="725.84,1332.44 726.34,1322.94"/>
    </edge>
    <edge id=":1524717108_0" function="internal">
        <lane id=":1524717108_0_0" index="0" disallow="tram rail_urban rail rail_electric ship" speed="27.78" length="0.10" shape="278.12,1885.11 278.17,1885.14"/>
        <lane id=":1524717108_0_1" index="1" disallow="tram rail_urban rail rail_electric ship" speed="27.78" length="0.10" shape="279.72,1882.22 279.74,1882.23"/>
    </edge>
    <edge id=":1524717108_2" function="internal">
        <lane id=":1524717108_2_0" index="0" disallow="tram rail_urban rail rail_electric ship" speed="27.78" length="0.10" shape="282.91,1876.45 282.92,1876.45"/>
        <lane id=":1524717108_2_1" index="1" disallow="tram rail_urban rail rail_electric ship" speed="27.78" length="0.10" shape="281.31,1879.33 281.32,1879.34"/>
    </edge>
    <edge id=":1654340335_0" function="internal">
        <lane id=":1654340335_0_0" index="0" disallow="tram rail_urban rail rail_electric ship" speed="22.22" length="9.50" shape="730.16,1512.88 730.06,1522.39"/>
        <lane id=":1654340335_0_1" index="1" disallow="tram rail_urban rail rail_electric ship" speed="22.22" length="9.50" shape="726.86,1512.86 726.76,1522.36"/>
    </edge>
    <edge id=":1654340335_2" function="internal">
        <lane id=":1654340335_2_0" index="0" disallow="tram rail_urban rail rail_electric ship" speed="18.05" length="4.49" shape="726.86,1512.86 726.23,1515.64 725.12,1516.84"/>
    </edge>
    <edge id=":1654340335_8" function="internal">
        <lane id=":1654340335_8_0" index="0" speed="18.05" length="8.60" shape="725.12,1516.84 724.40,1517.62 721.35,1518.80 717.10,1519.18"/>
    </edge>
    <edge id=":1654340335_3" function="internal">
        <lane id=":1654340335_3_0" index="0" disallow="tram rail_urban rail rail_electric ship" speed="18.05" length="5.02" shape="717.12,1515.88 718.48,1515.69 719.46,1515.12 720.06,1514.15 720.26,1512.80"/>
    </edge>
    <edge id=":1654340335_4" function="internal">
        <lane id=":1654340335_4_0" index="0" disallow="tram rail_urban rail rail_electric ship" speed="18.05" length="13.13" shape="717.12,1515.88 721.39,1516.30 724.42,1517.52 726.21,1519.54 726.76,1522.36"/>
    </edge>
    <edge id=":1654340335_5" function="internal">
        <lane id=":1654340335_5_0" index="0" disallow="tram rail_urban rail rail_electric ship" speed="18.05" length="5.00" shape="720.16,1522.30 719.99,1520.94 719.43,1519.97 718.46,1519.38 717.10,1519.18"/>
    </edge>
    <edge id=":1654340335_6" function="internal">
        <lane id=":1654340335_6_0" index="0" disallow="tram rail_urban rail rail_electric ship" speed="22.22" length="9.50" shape="720.16,1522.30 720.26,1512.80"/>
        <lane id=":1654340335_6_1" index="1" disallow="tram rail_urban rail rail_electric ship" speed="22.22" length="9.50" shape="723.46,1522.33 723.56,1512.83"/>
    </edge>
    <edge id=":476099844_0" function="internal">
        <lane id=":476099844_0_0" index="0" disallow="tram rail_urban rail rail_electric ship" speed="22.22" length="10.19" shape="-2.98,223.15 -2.47,220.25 -1.35,218.40 -0.24,216.55 0.23,213.66"/>
    </edge>
    <edge id=":476099844_1" function="internal">
        <lane id=":476099844_1_0" index="0" disallow="tram rail_urban rail rail_electric ship" speed="18.05" length="4.48" shape="0.32,223.14 0.92,220.30 1.98,219.13"/>
    </edge>
    <edge id=":476099844_6" function="internal">
        <lane id=":476099844_6_0" index="0" speed="18.05" length="8.68" shape="1.98,219.13 2.74,218.29 5.78,217.09 10.05,216.72"/>
    </edge>
    <edge id=":476099844_2" function="internal">
        <lane id=":476099844_2_0" index="0" disallow="tram rail_urban rail rail_electric ship" speed="18.05" length="5.01" shape="10.03,220.02 8.66,220.20 7.69,220.78 7.11,221.75 6.92,223.11"/>
    </edge>
    <edge id=":476099844_3" function="internal">
        <lane id=":476099844_3_0" index="0" disallow="tram rail_urban rail rail_electric ship" speed="18.05" length="13.09" shape="10.03,220.02 5.78,219.59 2.73,218.39 0.88,216.41 0.23,213.66"/>
    </edge>
    <edge id=":476099844_4" function="internal">
        <lane id=":476099844_4_0" index="0" disallow="tram rail_urban rail rail_electric ship" speed="18.05" length="7.93" shape="3.53,213.61 3.96,214.95 5.19,215.92 7.22,216.51 10.05,216.72"/>
    </edge>
    <edge id=":476099844_5" function="internal">
        <lane id=":476099844_5_0" index="0" disallow="tram rail_urban rail rail_electric ship" speed="22.22" length="9.52" shape="3.53,213.61 3.62,223.12"/>
    </edge>
    <edge id=":476099845_0" function="internal">
        <lane id=":476099845_0_0" index="0" disallow="tram rail_urban rail rail_electric ship" speed="22.22" length="9.61" shape="-2.17,421.75 -2.27,412.12"/>
        <lane id=":476099845_0_1" index="1" disallow="tram rail_urban rail rail_electric ship" speed="22.22" length="9.61" shape="1.13,421.70 1.03,412.11"/>
    </edge>
    <edge id=":476099845_2" function="internal">
        <lane id=":476099845_2_0" index="0" disallow="tram rail_urban rail rail_electric ship" speed="18.05" length="4.56" shape="1.13,421.70 1.69,418.84 2.79,417.61"/>
    </edge>
    <edge id=":476099845_8" function="internal">
        <lane id=":476099845_8_0" index="0" speed="18.05" length="8.64" shape="2.79,417.61 3.50,416.80 6.53,415.58 10.81,415.18"/>
    </edge>
    <edge id=":476099845_3" function="internal">
        <lane id=":476099845_3_0" index="0" disallow="tram rail_urban rail rail_electric ship" speed="18.05" length="5.02" shape="10.80,418.48 9.44,418.67 8.47,419.26 7.90,420.23 7.72,421.60"/>
    </edge>
    <edge id=":476099845_4" function="internal">
        <lane id=":476099845_4_0" index="0" disallow="tram rail_urban rail rail_electric ship" speed="18.05" length="13.12" shape="10.80,418.48 6.54,418.08 3.49,416.88 1.65,414.89 1.03,412.11"/>
    </edge>
    <edge id=":476099845_5" function="internal">
        <lane id=":476099845_5_0" index="0" disallow="tram rail_urban rail rail_electric ship" speed="18.05" length="5.05" shape="7.63,412.08 7.84,413.44 8.43,414.40 9.42,414.98 10.81,415.18"/>
    </edge>
    <edge id=":476099845_6" function="internal">
        <lane id=":476099845_6_0" index="0" disallow="tram rail_urban rail rail_electric ship" speed="22.22" length="9.54" shape="7.63,412.08 7.72,421.60"/>
        <lane id=":476099845_6_1" index="1" disallow="tram rail_urban rail rail_electric ship" speed="22.22" length="9.54" shape="4.33,412.10 4.43,421.65"/>
    </edge>
    <edge id=":476099847_0" function="internal">
        <lane id=":476099847_0_0" index="0" disallow="tram rail_urban rail rail_electric ship" speed="22.22" length="9.40" shape="0.89,629.50 0.79,620.12"/>
        <lane id=":476099847_0_1" index="1" disallow="tram rail_urban rail rail_electric ship" speed="22.22" length="9.40" shape="4.19,629.49 4.09,620.07"/>
    </edge>
    <edge id=":476099847_2" function="internal">
        <lane id=":476099847_2_0" index="0" disallow="tram rail_urban rail rail_electric ship" speed="18.05" length="4.46" shape="4.19,629.49 4.78,626.68 5.85,625.50"/>
    </edge>
    <edge id=":476099847_8" function="internal">
        <lane id=":476099847_8_0" index="0" speed="18.05" length="8.63" shape="5.85,625.50 6.59,624.68 9.61,623.46 13.85,623.04"/>
    </edge>
    <edge id=":476099847_3" function="internal">
        <lane id=":476099847_3_0" index="0" disallow="tram rail_urban rail rail_electric ship" speed="18.05" length="5.00" shape="13.87,626.34 12.52,626.54 11.55,627.13 10.97,628.10 10.79,629.45"/>
    </edge>
    <edge id=":476099847_4" function="internal">
        <lane id=":476099847_4_0" index="0" disallow="tram rail_urban rail rail_electric ship" speed="18.05" length="13.05" shape="13.87,626.34 9.63,625.97 6.59,624.80 4.74,622.83 4.09,620.07"/>
    </edge>
    <edge id=":476099847_5" function="internal">
        <lane id=":476099847_5_0" index="0" disallow="tram rail_urban rail rail_electric ship" speed="18.05" length="5.01" shape="10.69,619.97 10.91,621.32 11.51,622.28 12.49,622.85 13.85,623.04"/>
    </edge>
    <edge id=":476099847_6" function="internal">
        <lane id=":476099847_6_0" index="0" disallow="tram rail_urban rail rail_electric ship" speed="22.22" length="9.47" shape="10.69,619.97 10.79,629.45"/>
        <lane id=":476099847_6_1" index="1" disallow="tram rail_urban rail rail_electric ship" speed="22.22" length="9.47" shape="7.39,620.02 7.49,629.47"/>
    </edge>
    <edge id=":476099850_0" function="internal">
        <lane id=":476099850_0_0" index="0" disallow="tram rail_urban rail rail_electric ship" speed="16.67" length="16.29" shape="1.37,845.49 1.31,840.66 1.29,837.35 1.29,834.04 1.31,829.20"/>
    </edge>
    <edge id=":476099850_1" function="internal">
        <lane id=":476099850_1_0" index="0" disallow="tram rail_urban rail rail_electric ship" speed="19.45" length="7.57" shape="4.67,845.45 5.24,841.24 6.94,838.38"/>
    </edge>
    <edge id=":476099850_8" function="internal">
        <lane id=":476099850_8_0" index="0" speed="19.45" length="8.18" shape="6.94,838.38 7.05,838.19 10.11,836.32 14.42,835.62"/>
    </edge>
    <edge id=":476099850_2" function="internal">
        <lane id=":476099850_2_0" index="0" disallow="tram rail_urban rail rail_electric ship" speed="19.45" length="7.84" shape="14.57,842.22 13.11,842.44 12.08,843.04 11.46,844.02 11.27,845.38"/>
        <lane id=":476099850_2_1" index="1" disallow="tram rail_urban rail rail_electric ship" speed="19.45" length="7.84" shape="14.50,838.92 11.61,839.38 9.56,840.62 8.35,842.63 7.97,845.41"/>
    </edge>
    <edge id=":476099850_4" function="internal">
        <lane id=":476099850_4_0" index="0" disallow="tram rail_urban rail rail_electric ship" speed="25.00" length="15.89" shape="14.50,838.92 10.16,838.40 7.06,836.61 5.21,833.55 4.61,829.22"/>
    </edge>
    <edge id=":476099850_5" function="internal">
        <lane id=":476099850_5_0" index="0" disallow="tram rail_urban rail rail_electric ship" speed="25.00" length="7.75" shape="11.21,829.25 11.40,830.62 11.99,831.59 12.97,832.15 14.34,832.32"/>
        <lane id=":476099850_5_1" index="1" disallow="tram rail_urban rail rail_electric ship" speed="25.00" length="7.75" shape="7.91,829.23 8.31,832.08 9.52,834.10 11.56,835.28 14.42,835.62"/>
    </edge>
    <edge id=":476099850_7" function="internal">
        <lane id=":476099850_7_0" index="0" disallow="tram rail_urban rail rail_electric ship" speed="16.67" length="16.18" shape="7.91,829.23 7.89,834.04 7.89,837.32 7.91,840.61 7.97,845.41"/>
    </edge>
    <edge id=":901053247_0" function="internal">
        <lane id=":901053247_0_0" index="0" disallow="tram rail_urban rail rail_electric bicycle pedestrian ship" speed="27.78" length="19.30" shape="32.36,1692.40 24.92,1690.06 19.63,1687.07 16.48,1683.43 15.46,1679.14"/>
        <lane id=":901053247_0_1" index="1" disallow="tram rail_urban rail rail_electric bicycle pedestrian ship" speed="27.78" length="19.30" shape="33.12,1689.19 26.81,1687.28 22.31,1684.98 19.63,1682.28 18.76,1679.18"/>
        <lane id=":901053247_0_2" index="2" disallow="tram rail_urban rail rail_electric bicycle pedestrian ship" speed="27.78" length="19.30" shape="33.12,1689.19 28.25,1687.57 24.78,1685.38 22.72,1682.59 22.06,1679.22"/>
    </edge>
    <edge id=":901053247_3" function="internal">
        <lane id=":901053247_3_0" index="0" disallow="tram rail_urban rail rail_electric ship" speed="27.78" length="7.00" shape="31.96,1679.34 32.12,1680.60 32.61,1681.59 33.45,1682.31 34.64,1682.76"/>
        <lane id=":901053247_3_1" index="1" disallow="tram rail_urban rail rail_electric ship" speed="27.78" length="7.00" shape="28.66,1679.30 28.96,1681.75 29.93,1683.68 31.57,1685.09 33.88,1685.97"/>
    </edge>
    <edge id=":901065942_0" function="internal">
        <lane id=":901065942_0_0" index="0" disallow="tram rail_urban rail rail_electric bicycle pedestrian ship" speed="20.84" length="5.00" shape="36.06,1600.12 34.69,1600.29 33.72,1600.86 33.12,1601.82 32.91,1603.17"/>
    </edge>
    <edge id=":901065942_1" function="internal">
        <lane id=":901065942_1_0" index="0" disallow="tram rail_urban rail rail_electric bicycle pedestrian ship" speed="20.84" length="17.40" shape="36.06,1600.12 28.93,1599.63 23.84,1598.40 20.78,1596.45 19.75,1593.76"/>
        <lane id=":901065942_1_1" index="1" disallow="tram rail_urban rail rail_electric bicycle pedestrian ship" speed="20.84" length="17.40" shape="36.06,1600.12 30.38,1599.64 26.32,1598.42 23.88,1596.46 23.05,1593.74"/>
    </edge>
    <edge id=":901065942_3" function="internal">
        <lane id=":901065942_3_0" index="0" disallow="tram rail_urban rail rail_electric ship" speed="20.84" length="5.03" shape="32.95,1593.70 33.15,1595.05 33.75,1596.01 34.73,1596.60 36.11,1596.82"/>
    </edge>
    <edge id=":901065942_4" function="internal">
        <lane id=":901065942_4_0" index="0" disallow="tram rail_urban rail rail_electric bicycle pedestrian ship" speed="27.78" length="9.42" shape="32.95,1593.70 32.91,1603.17"/>
        <lane id=":901065942_4_1" index="1" disallow="tram rail_urban rail rail_electric bicycle pedestrian ship" speed="27.78" length="9.42" shape="29.65,1593.71 29.61,1603.13"/>
        <lane id=":901065942_4_2" index="2" disallow="tram rail_urban rail rail_electric bicycle pedestrian ship" speed="27.78" length="9.42" shape="26.35,1593.73 26.31,1603.09"/>
    </edge>
    <edge id=":901065942_7" function="internal">
        <lane id=":901065942_7_0" index="0" disallow="tram rail_urban rail rail_electric bicycle pedestrian ship" speed="27.78" length="9.25" shape="16.41,1602.97 16.45,1593.77"/>
        <lane id=":901065942_7_1" index="1" disallow="tram rail_urban rail rail_electric bicycle pedestrian ship" speed="27.78" length="9.25" shape="19.71,1603.01 19.75,1593.76"/>
        <lane id=":901065942_7_2" index="2" disallow="tram rail_urban rail rail_electric bicycle pedestrian ship" speed="27.78" length="9.25" shape="23.01,1603.05 23.05,1593.74"/>
    </edge>
    <edge id=":901065942_10" function="internal">
        <lane id=":901065942_10_0" index="0" disallow="tram rail_urban rail rail_electric ship" speed="20.84" length="4.04" shape="23.01,1603.05 23.86,1600.25 24.73,1599.56"/>
    </edge>
    <edge id=":901065942_11" function="internal">
        <lane id=":901065942_11_0" index="0" speed="20.84" length="11.99" shape="24.73,1599.56 26.33,1598.28 30.41,1597.13 36.11,1596.82"/>
    </edge>
    <edge id=":901205346_0" function="internal">
        <lane id=":901205346_0_0" index="0" disallow="tram rail_urban rail rail_electric ship" speed="18.05" length="5.00" shape="874.87,1118.25 874.67,1116.89 874.08,1115.93 873.10,1115.36 871.75,1115.17"/>
    </edge>
    <edge id=":901205346_1" function="internal">
        <lane id=":901205346_1_0" index="0" disallow="tram rail_urban rail rail_electric ship" speed="22.22" length="9.50" shape="874.87,1118.25 874.81,1108.75"/>
    </edge>
    <edge id=":901205346_2" function="internal">
        <lane id=":901205346_2_0" index="0" disallow="tram rail_urban rail rail_electric ship" speed="22.22" length="9.49" shape="878.11,1108.73 878.17,1118.22"/>
    </edge>
    <edge id=":901205346_3" function="internal">
        <lane id=":901205346_3_0" index="0" disallow="tram rail_urban rail rail_electric ship" speed="18.05" length="5.27" shape="878.11,1108.73 877.72,1111.54 876.54,1113.54 876.44,1113.60"/>
    </edge>
    <edge id=":901205346_6" function="internal">
        <lane id=":901205346_6_0" index="0" speed="18.05" length="5.05" shape="876.44,1113.60 874.54,1114.75 871.75,1115.17"/>
    </edge>
    <edge id=":901205346_4" function="internal">
        <lane id=":901205346_4_0" index="0" disallow="tram rail_urban rail rail_electric ship" speed="18.05" length="5.00" shape="871.73,1111.87 873.08,1111.67 874.05,1111.08 874.62,1110.11 874.81,1108.75"/>
    </edge>
    <edge id=":901205346_5" function="internal">
        <lane id=":901205346_5_0" index="0" disallow="tram rail_urban rail rail_electric ship" speed="18.05" length="10.32" shape="871.73,1111.87 874.53,1112.25 876.54,1113.44 877.75,1115.43 878.17,1118.22"/>
    </edge>
    <edge id=":901205379_0" function="internal">
        <lane id=":901205379_0_0" index="0" disallow="tram rail_urban rail rail_electric ship" speed="12.50" length="5.08" shape="16.17,1038.74 14.77,1038.94 13.76,1039.52 13.15,1040.48 12.93,1041.83"/>
    </edge>
    <edge id=":901205379_1" function="internal">
        <lane id=":901205379_1_0" index="0" disallow="tram rail_urban rail rail_electric ship" speed="12.50" length="10.98" shape="16.17,1038.74 11.88,1038.56 8.81,1037.99 6.97,1037.04 6.35,1035.68"/>
    </edge>
    <edge id=":901205379_2" function="internal">
        <lane id=":901205379_2_0" index="0" disallow="tram rail_urban rail rail_electric ship" speed="11.11" length="6.15" shape="12.95,1035.65 12.93,1041.83"/>
        <lane id=":901205379_2_1" index="1" disallow="tram rail_urban rail rail_electric ship" speed="11.11" length="6.15" shape="9.65,1035.67 9.63,1041.79"/>
    </edge>
    <edge id=":901205379_4" function="internal">
        <lane id=":901205379_4_0" index="0" disallow="tram rail_urban rail rail_electric ship" speed="11.11" length="6.03" shape="3.03,1041.71 3.05,1035.70"/>
        <lane id=":901205379_4_1" index="1" disallow="tram rail_urban rail rail_electric ship" speed="11.11" length="6.03" shape="6.33,1041.75 6.35,1035.68"/>
    </edge>
    <edge id=":901205417_0" function="internal">
        <lane id=":901205417_0_0" index="0" disallow="tram rail_urban rail rail_electric ship" speed="13.89" length="5.07" shape="592.49,1120.33 592.28,1118.97 591.68,1118.01 590.68,1117.43 589.28,1117.25"/>
    </edge>
    <edge id=":901205417_1" function="internal">
        <lane id=":901205417_1_0" index="0" disallow="tram rail_urban rail rail_electric ship" speed="13.89" length="9.54" shape="592.49,1120.33 592.30,1110.78"/>
    </edge>
    <edge id=":901205417_2" function="internal">
        <lane id=":901205417_2_0" index="0" disallow="tram rail_urban rail rail_electric ship" speed="13.89" length="10.32" shape="592.49,1120.33 592.87,1117.52 594.06,1115.52 596.05,1114.30 598.84,1113.88"/>
    </edge>
    <edge id=":901205417_3" function="internal">
        <lane id=":901205417_3_0" index="0" disallow="tram rail_urban rail rail_electric ship" speed="13.89" length="5.00" shape="598.87,1117.18 597.51,1117.38 596.55,1117.97 595.98,1118.94 595.79,1120.30"/>
    </edge>
    <edge id=":901205417_4" function="internal">
        <lane id=":901205417_4_0" index="0" disallow="tram rail_urban rail rail_electric ship" speed="13.89" length="9.59" shape="598.87,1117.18 589.28,1117.25"/>
    </edge>
    <edge id=":901205417_5" function="internal">
        <lane id=":901205417_5_0" index="0" disallow="tram rail_urban rail rail_electric ship" speed="13.89" length="5.28" shape="598.87,1117.18 596.07,1116.80 594.05,1115.61 593.99,1115.51"/>
    </edge>
    <edge id=":901205417_12" function="internal">
        <lane id=":901205417_12_0" index="0" speed="13.89" length="5.12" shape="593.99,1115.51 592.79,1113.60 592.30,1110.78"/>
    </edge>
    <edge id=":901205417_6" function="internal">
        <lane id=":901205417_6_0" index="0" disallow="tram rail_urban rail rail_electric ship" speed="13.89" length="5.17" shape="595.60,1110.67 595.84,1112.09 596.46,1113.09 597.46,1113.69 598.84,1113.88"/>
    </edge>
    <edge id=":901205417_7" function="internal">
        <lane id=":901205417_7_0" index="0" disallow="tram rail_urban rail rail_electric ship" speed="13.89" length="9.63" shape="595.60,1110.67 595.79,1120.30"/>
    </edge>
    <edge id=":901205417_8" function="internal">
        <lane id=":901205417_8_0" index="0" disallow="tram rail_urban rail rail_electric ship" speed="13.89" length="10.46" shape="595.60,1110.67 595.28,1113.53 594.13,1115.58 592.12,1116.82 589.28,1117.25"/>
    </edge>
    <edge id=":901205417_9" function="internal">
        <lane id=":901205417_9_0" index="0" disallow="tram rail_urban rail rail_electric ship" speed="13.89" length="5.03" shape="589.26,1113.95 590.63,1113.74 591.59,1113.15 592.15,1112.16 592.30,1110.78"/>
    </edge>
    <edge id=":901205417_10" function="internal">