<?xml version="1.0"?>
<!-- generated on 2017-03-17 17:50:46.227344 by $Id: randomTrips.py 19495 2015-12-02 12:36:28Z behrisch $
  options: -n ottawa.net.xml <doubleminus>begin 0 <doubleminus>end 15.00 <doubleminus>period 0.1 <doubleminus>min-distance 500 <doubleminus>fringe-factor 1 <doubleminus>intermediate 50 <doubleminus>trip-attributes=departSpeed="max"  departPos="random"  type="fastCar" -a ottawa.150.randomTrips.xml -o ottawa.150.trips.xml <doubleminus>weights-prefix ottawa
-->
<trips>
    <trip id="0" depart="0.00" from="76443156#0" to="76441787#9" via="-76443355#1 -76442648#1 -76441164#7 76443156#1 -76441164#8 76441164#0 -76441787#0 362066955#0 76442090#3 76442079#4 -258787159#2 361431608#2 76441807#3 -258787159#1 76441065#0 -76441526 362066956#1 76442079#4 76443372#8 76441067#2 76441495#0 76445041#5 76441202#0 -76441526 76442079#1 76441807#3 76441807#2 -76442648#1 76441787#3 76442648#2 76441807#1 76441385#1 -76441807#0 -76441164#0 -361431608#1 -76441787#8 -76442471#2 -76441694#2 76441787#10 -76445041#4 76441807#2 -76442481 76441065#2 -76443382 --69738 -76441807#1 76442079#0 76441067#3 76443372#6 76441385#0" departSpeed="max"  departPos="random"  type="fastCar"/>
    <trip id="1" depart="0.10" from="76445041#7" to="76442583#2" via="-76441202#0 76441495#0 76441787#6 76441164#1 76441385#0 76441958#1 -76441807#1 76442079#0 76443372#0 -76441787#3 -76441437#2 76441531#4 258787159#4 -76441787#0 76441531#2 -362066956#1 76441437#4 -69740 -76443372#3 -76441164#2 76441807#2 76442079#2 76419487 76442648#1 76441164#4 76441787#8 76441141#4 76445041#8 -76441531#1 76441531#3 -76441958#0 -76445041#0 -76443372#2 76445041#2 76445041#7 -362066956#4 361431608#3 76441787#2 76443031#0 76441141#6 -76441531#4 258787159#3 76441385#2 76441531#3 -76441164#3 -76442090#1 76443156#1 76442079#2 76443372#3 76443372#3" departSpeed="max"  departPos="random"  type="fastCar"/>
    <trip id="2" depart="0.20" from="76419221#0" to="76441531#6" via="-362066955#4 76441531#3 76441787#10 -76441164#6 76441764 -362066955#1 -76441817 -76441807#2 76419221#1 76445041#2 76441385#1 -76441164#6 -76443156#2 -76442471#2 76441437#2 76441787#1 -76441694#2 362066955#5 -76441164#7 76441141#0 -76441669 -76441164#1 -76442648#0 -76443355#2 76441958#3 -76443372#0 -76442079#4 76441067#0 76443372#2 -76441531#5 76441164#4 76441141#0 -76441067#2 -76441531#1 362066955#4 -152627338#1 -76442090#0 76441958#2 -76443156#1 76419221#0 --69738 -76442648#1 -76442079#1 76441437#2 76441495#2 -362066956#0 -258787159#1 -76441531#6 76419221#0 -76441531#3" departSpeed="max"  departPos="random"  type="fastCar"/>
    <trip id="3" depart="0.30" from="76441694#2" to="76441065#0" via="76442079#3 76441141#4 76441437#4 76441067#1 76441787#4 76442648#1 -76441495#2 76443747#2 -76442079#2 -76441385#2 -362066955#5 76441385#0 76442648#2 -361431608#4 76443372#3 76442090#0 -76443355#3 305807458#0 76443372#2 -76441787#5 76441164#6 76441067#2 76441141#1 -76442079#1 -76443747#1 305807458#0 -76441067#3 -76442648#1 -76441958#4 -76442471#1 -76441385#1 -76441202#1 -76442648#2 -76441958#5 76442471#0 76441437#1 76441958#1 -76419221#1 -76442648#1 -76441787#9 362066955#3 -76442090#1 76441694#2 362066955#2 362066955#5 -76443355#2 76442090#0 -76441437#0 -76441526 -76441531#5" departSpeed="max"  departPos="random"  type="fastCar"/>
    <trip id="4" depart="0.40" from="-76443747#0" to="-76419221#2" via="-152627338#0 -258787159#5 -76443355#3 76442471#3 362066956#1 -76441495#2 -76442079#5 -76443355#3 -76441385#0 76445041#2 -76443747#0 76441694#0 76419487 -258787159#2 362066956#2 76441787#4 76441202#0 -76442079#5 -76441495#1 -76441437#0 -76441531#4 76441531#5 76443156#1 -258787159#4 -76441065#0 76441385#2 76442090#2 -76441531#3 76441067#2 -258787159#1 76441531#0 76441437#3 76442079#1 76441437#4 -76441067#3 76441164#5 76441787#9 76441495#1 76441141#5 76441164#6 76442471#3 -76441694#0 76441067#0 76442246 -76441202#1 258787159#0 -76443747#0 76441141#5 -76441164#8 76441787#0" departSpeed="max"  departPos="random"  type="fastCar"/>
    <trip id="5" depart="0.50" from="-76419221#1" to="-76441787#0" via="-76445041#3 -76419487 76441958#5 361431608#1 -76441787#7 -76442471#1 362066955#3 361431608#0 76419221#1 76419487 -76441669 76441202#2 -76441531#2 -76443355#1 -305807458#1 -76419221#2 -76442079#3 305807458#0 -76441787#3 76441437#1 -76441787#5 -76441694#0 -76443372#8 76441669 -361431608#3 76442471#3 76441531#3 -76441807#1 76441164#0 305807458#1 -76443372#2 -76442079#5 76441495#1 -76441385#1 76442471#0 -76441958#5 76441202#2 -362066956#0 -76419221#1 -76441385#1 76445041#1 76441787#1 -76442471#3 76441495#1 -76441787#10 -76442246 76443747#1 -361431608#4 76441164#8 -76441817" departSpeed="max"  departPos="random"  type="fastCar"/>
    <trip id="6" depart="0.60" from="-76441437#4" to="76419221#2" via="76441067#0 76441787#10 76441385#3 -76441385#1 76441164#2 76442079#2 -76441787#9 76441141#5 76443176#1 76441164#1 76443747#0 76441807#3 -76441531#0 76441164#8 -76441202#1 76441164#6 -76441437#0 76443212 362066956#0 76442079#5 -76441787#8 76442471#0 -76443355#3 76441531#6 -305807458#2 76443747#2 76445041#2 76441164#3 76443156#3 -76445041#1 -76441531#4 76441164#8 76443747#0 76443355#3 362066955#0 -76441065#0 -76442079#3 -76442648#0 76441958#5 -76441807#2 -258787159#1 76441807#2 76442090#3 -76443372#8 -362066955#2 -258787159#3 76441787#9 76441385#2 76441067#0 -76441531#0" departSpeed="max"  departPos="random"  type="fastCar"/>
    <trip id="7" depart="0.70" from="-76419221#0" to="76441531#6" via="-76441067#3 -76443372#8 76441787#0 -76441787#6 -76441202#2 -361431608#0 361431608#4 -362066956#2 76441141#2 76443747#1 76441141#4 -76441065#1 76441958#4 -76441202#1 -76441787#6 76442471#4 -76441787#0 -362066956#3 -362066955#0 76441807#2 -76442090#2 76442471#2 76441141#4 76445041#1 76442648#2 76441164#3 362066955#5 -76442471#2 -362066956#1 76441202#0 -76419221#1 -76441531#3 76445041#2 -76441787#3 -76442246 362066955#0 76442079#2 -76442079#2 -76441202#1 -305807458#2 76443372#4 258787159#3 -76441437#2 362066955#0 -76445041#3 -76445041#8 -76442090#2 -76441807#0 -76441531#6 76441787#8" departSpeed="max"  departPos="random"  type="fastCar"/>
    <trip id="8" depart="0.80" from="-76441065#1" to="-76443156#0" via="76441807#2 -76441067#0 76443372#5 -76441694#2 76441787#0 76441694#1 76441164#2 76441385#0 -76445041#8 -76441495#2 76441531#2 76441807#1 362066955#1 -361431608#4 --69738 -76441787#9 76443355#1 76441437#1 76443372#3 -76441817 76441385#2 -69740 -76442246 -76443355#3 -76441067#1 -76441764 258787159#1 76442246 76443176#3 76443372#7 -76442481 76441164#4 -362066955#0 -258787159#4 -361431608#0 -76441531#4 -76441694#2 76443156#0 76419221#1 76443372#8 76441669 -76442471#1 76441694#1 -258787159#4 76419221#0 76442079#3 -76441807#0 --69738 -76443372#8 -362066955#0" departSpeed="max"  departPos="random"  type="fastCar"/>
    <trip id="9" depart="0.90" from="76441202#0" to="76419221#2" via="-152627338#0 76441067#3 -76441065#1 76441067#0 -76441807#2 76442648#2 76441669 76441694#0 76441141#4 76443355#0 76442090#1 -76442079#3 -76442471#3 76442246 76441807#3 -76441787#7 76419221#1 -76443382 76443372#2 -76441531#2 76441495#0 -76441531#4 76441694#1 76441437#0 -76441787#6 -76442090#1 -76442079#5 76443176#1 76441065#2 76419221#1 -76441495#0 76441164#1 76441164#8 76443372#2 76443372#6 76443176#2 -76443372#0 -258787159#0 -76442090#3 76441764 258787159#1 -76441164#8 362066956#2 76443176#4 76441067#3 -76441807#2 76441958#0 76441787#6 76441787#10 -76442471#1" departSpeed="max"  departPos="random"  type="fastCar"/>
    <trip id="10" depart="1.00" from="76442079#3" to="76442583#2" via="76441065#1 -76441958#1 362066955#0 76445041#1 -321748518 76443156#1 76441958#1 -76419221#1 -76441764 76441385#3 305807458#1 76442648#1 76441807#3 258787159#2 -76441764 76443176#2 76419221#0 -76441531#1 76441531#5 76419221#1 76443156#2 76445041#4 -76442471#3 76441787#2 -76445041#7 -76441437#0 --69740 76445041#3 76442246 -76443355#0 -76445041#8 -76441787#1 -76442090#0 76441141#4 76443372#6 -361431608#0 -305807458#2 76442079#2 -76445041#0 -76441495#0 -76441495#2 76441141#2 -76441437#0 -76419221#1 76443747#3 -321748518 76441807#3 76441164#2 362066956#3 -76442090#0" departSpeed="max"  departPos="random"  type="fastCar"/>
    <trip id="11" depart="1.10" from="-76441531#5" to="-258787159#0" via="-362066956#1 76441669 76441067#1 -76445041#4 76441531#3 76442471#3 -76441531#6 -76443156#3 -76441437#3 362066955#0 76443372#6 -76441202#1 76442471#4 -76441787#3 76441495#1 76441958#1 76443156#2 -76443382 -76443747#3 76441669 76442246 76441787#2 76443031#2 76442079#5 76442471#1 -76441531#6 -76443372#5 362066955#4 76441385#3 -76441495#0 362066955#5 76441437#0 -76442079#5 -76441787#10 76441202#2 76443031#0 -76442079#3 -361431608#1 -76443156#2 -362066955#3 76441531#2 -362066955#3 76441164#2 -362066956#4 76441164#4 -76441202#2 76445041#5 76441385#2 -76441437#2 361431608#4" departSpeed="max"  departPos="random"  type="fastCar"/>
    <trip id="12" depart="1.20" from="76443355#3" to="76441787#9" via="-76441065#1 -76442648#2 -76441385#3 76441958#5 76443747#2 -76443156#0 76441958#5 76441164#6 -76443372#1 -76443372#0 -76441437#0 76443156#2 76441164#4 -76442079#5 -76441694#2 -76443156#2 -76443355#2 76441067#1 76441437#2 -76441694#1 -76443372#2 -362066956#4 76441141#1 -76441531#3 76442471#3 -76442079#3 76441807#1 -76441437#0 -76443372#7 -76445041#2 -76443372#5 361431608#4 76441495#2 -76443355#3 76441694#0 -76441202#1 76445041#2 -76441787#4 362066955#3 -258787159#0 76441787#7 -258787159#1 76442079#0 -76442079#2 76443156#3 -362066955#2 76442079#4 -76419221#0 -305807458#0 76441694#0" departSpeed="max"  departPos="random"  type="fastCar"/>
    <trip id="13" depart="1.30" from="76442648#0" to="258787159#5" via="-76443156#2 76442471#1 -76445041#6 -76442079#4 76441385#1 -76441067#0 -76445041#3 --69740 76442079#2 -362066956#1 76441694#2 -362066956#0 -76441787#2 76441531#5 -76441164#3 -69740 76443747#2 76441065#2 -76441385#0 305807458#0 -152627338#0 76441437#1 76441437#3 -76441065#0 361431608#4 76443355#1 362066955#1 76443031#1 -76443747#0 -76443156#3 76441531#4 -76442481 76443372#0 -361431608#1 -76441164#1 -321748518 -76441526 76441202#2 -76441437#0 -361431608#1 76443156#4 -362066956#0 -76441531#4 76443156#3 76419221#2 76442648#2 -76441164#0 76441958#1 76441164#8 76441164#0" departSpeed="max"  departPos="random"  type="fastCar"/>
    <trip id="14" depart="1.40" from="76443382" to="76442583#2" via="-76442090#1 -362066955#2 -362066956#1 -76441787#6 76441694#0 -76419221#2 76441787#3 76443372#7 -76442090#2 76445041#3 -76441787#1 -76442079#1 362066955#5 76443156#4 -69740 -76442648#1 -76441437#1 -76441958#1 362066956#1 76442079#5 76442090#2 76442648#2 -258787159#2 76443355#3 -76445041#2 -76441764 76443747#2 -76442471#4 76441385#1 -361431608#4 76441164#4 76441141#0 76442471#4 76443031#0 362066955#2 -76441807#1 361431608#3 -76441531#4 -76441958#5 76443355#2 76443372#7 -76443156#3 -258787159#2 -76441067#0 76443747#3 362066956#3 305807458#1 76441495#1 76442471#2 76441164#4" departSpeed="max"  departPos="random"  type="fastCar"/>
    <trip id="15" depart="1.50" from="76445041#4" to="-76443156#0" via="-76441437#1 -76445041#5 76441141#1 76445041#6 -362066955#4 -76441164#6 76441531#0 76441164#5 -76445041#5 -76442648#0 76445041#4 -76441531#2 76441531#5 258787159#4 76441141#0 -361431608#0 -76442090#0 76419221#0 -76445041#3 76441495#0 76441385#0 -76441437#3 76442648#0 -76441669 -76441065#1 76441164#2 -362066955#4 -76441787#2 -76441202#0 -76443355#2 76441764 -76441067#3 76441437#3 76443176#1 76441526 -362066956#1 -76443355#3 76441164#7 -76441787#8 76441787#5 76443372#5 361431608#1 -76441958#4 76441141#1 76443031#1 -258787159#0 -76443747#3 -76442471#2 361431608#0 -76441437#1" departSpeed="max"  departPos="random"  type="fastCar"/>
    <trip id="16" depart="1.60" from="76443372#5" to="258787159#0" via="76441385#2 76442471#0 305807458#2 76443176#0 76442079#2 -76442648#0 -76441437#1 76419221#2 258787159#5 -76441385#0 -76441437#4 76441958#4 -76441164#0 76445041#1 76441531#3 76442471#0 361431608#3 76441437#4 -76441495#2 -76442471#0 76442090#2 76442471#0 -76445041#8 76443372#2 76441067#1 76443156#0 76443747#2 -305807458#2 76441817 -76441164#4 -76443372#4 -76441164#7 -76441437#0 -76442079#4 -321748518 362066956#3 76442090#2 76441437#4 76443372#4 76441694#2 -362066955#4 -76441437#1 76441787#1 -76441787#7 -305807458#1 76441807#3 305807458#1 -76441694#0 -76441807#0 -305807458#0" departSpeed="max"  departPos="random"  type="fastCar"/>
    <trip id="17" depart="1.70" from="-362066955#0" to="76441807#1" via="76441787#9 76441787#5 76443372#2 76441164#8 76441817 -76442481 -76441385#2 76443176#2 76441141#0 76443372#4 76441164#7 -76445041#2 76441164#0 -361431608#2 -76443355#0 76419221#2 76441531#0 -321748518 -76441787#5 -362066955#0 -76441531#3 -152627338#0 76441202#2 76443372#0 362066956#2 76441531#2 361431608#4 76443031#1 76441141#2 -76443372#4 -258787159#2 76442090#2 76441141#1 76441065#0 -258787159#5 76441807#1 -76441958#4 76441958#3 76442471#2 -76441787#0 76443156#0 76445041#3 76445041#7 76441694#2 -76441526 258787159#3 76441958#3 361431608#3 76441202#1 76443372#5" departSpeed="max"  departPos="random"  type="fastCar"/>
    <trip id="18" depart="1.80" from="76441141#5" to="-76442583#2" via="-76442079#4 -76442471#4 -76443747#0 76443747#3 76443176#1 -152627338#1 152627338#1 -76441958#1 -152627338#0 76443176#4 362066955#1 -76441067#3 152627338#0 -76442471#0 -76441067#3 -76441067#2 76441958#5 -76443156#3 76443372#3 76443156#2 362066955#0 -76441067#1 -76443156#0 76441694#2 -76442079#3 -76441787#0 -76443355#1 76441958#5 -152627338#1 76443747#0 -76441202#1 -76445041#0 362066955#3 76445041#2 76443372#3 --69740 -76442648#0 76441141#5 -76441807#0 76443355#1 -305807458#0 -76445041#5 -76441385#0 -76441065#0 76443212 -76441164#7 76441164#3 362066956#3 76441164#1 76443176#0" departSpeed="max"  departPos="random"  type="fastCar"/>
    <trip id="19" depart="1.90" from="76441141#0" to="-258787159#0" via="-76441787#3 -321748518 -76441807#3 -76441437#4 -76443355#2 76441164#7 -362066955#3 258787159#1 -76443156#2 -76445041#0 76441164#6 76441787#10 362066956#3 76441164#7 76443372#8 -76441787#1 -258787159#5 76441067#1 -76441164#1 76441495#0 76442079#1 -361431608#1 -76443156#2 258787159#0 76443372#4 -76441807#2 -76442079#1 -76441437#2 -76443355#1 76443176#0 76443156#3 76441437#0 362066956#4 -76442481 362066955#0 -362066955#5 76442079#4 76442090#1 76441164#1 305807458#0 76441817 -76441694#0 -76442079#2 76442648#1 362066955#5 76442471#4 76445041#6 -76441495#2 -362066956#0 -76441817" departSpeed="max"  departPos="random"  type="fastCar"/>
    <trip id="20" depart="2.00" from="76445041#6" to="-258787159#0" via="76442246 76441669 76443156#4 76441958#1 -76441437#3 -361431608#4 -258787159#2 76441164#4 76441531#0 76445041#2 -362066956#2 76441141#3 -76441202#2 -76442471#2 -76442079#5 76441385#3 258787159#3 76441764 76445041#7 76442079#5 -76441495#0 76441787#3 76441164#1 361431608#3 -76443747#1 -362066955#5 362066956#3 76441141#3 -362066955#1 76441531#0 -362066955#0 258787159#5 -362066955#4 76443031#2 362066956#4 76441787#6 -76441437#2 -76441807#1 -76443372#1 -76445041#6 76442079#3 -76441385#3 76441141#0 76441202#0 -76441787#3 -321748518 152627338#0 -76442079#1 76441958#5 76441164#4" departSpeed="max"  departPos="random"  type="fastCar"/>
    <trip id="21" depart="2.10" from="76441807#1" to="-76443156#0" via="76441141#6 76441065#0 -258787159#5 -76443372#1 76441531#1 76441958#2 76441669 -76441164#8 76443212 76441764 -76445041#1 76443382 362066955#5 -76441067#0 -76441526 76441385#0 76419221#1 -76441958#5 -76443372#0 76445041#8 -76441437#3 -76443355#2 -76419221#2 -76441495#1 -362066956#1 -76419487 76441141#4 -76445041#7 76443747#0 -76442471#4 305807458#0 -76442471#4 76443747#0 -76441787#2 -361431608#3 76443156#1 258787159#3 152627338#0 -76441067#1 -258787159#3 -362066955#1 258787159#5 76441495#1 -362066955#1 76443372#4 76441437#1 -76442079#3 76445041#8 -76441495#1 -362066955#4" departSpeed="max"  departPos="random"  type="fastCar"/>
    <trip id="22" depart="2.20" from="76441164#8" to="-76441531#6" via="76441958#2 -76441958#2 -76441787#2 76445041#2 -361431608#3 362066956#1 -76442090#3 -76443747#0 -76441958#1 -76442090#0 76441385#0 76442079#1 76441787#0 76441531#1 76443747#0 -76442471#1 -69738 76442090#1 76443372#6 76441531#0 361431608#0 -76443355#2 76441385#3 76441164#2 -76445041#2 76441385#2 -76441531#3 -76442090#3 -76441385#2 76441807#3 -305807458#1 76441141#1 76441202#1 -76441531#1 76441065#2 -76443747#1 362066955#4 76445041#6 76441787#5 76441141#6 76441764 76441807#3 76441495#2 -76442079#4 76441385#2 76441787#5 -76443747#1 -76442481 76441531#0 -76441958#1" departSpeed="max"  departPos="random"  type="fastCar"/>
    <trip id="23" depart="2.30" from="-76442090#1" to="-76419221#2" via="76443031#0 -76445041#8 -258787159#4 -76443372#4 -76442079#0 76443031#2 76441787#2 -258787159#3 -76441787#10 -69738 -76441495#2 76441437#3 76441531#2 76443372#2 76441164#2 76442090#0 -76441958#2 -76442079#2 76443382 76441531#4 76441065#0 -305807458#2 -76441787#10 -76441202#1 76441531#1 -258787159#5 362066955#3 --69738 76443747#0 -258787159#1 -361431608#2 76441787#1 -258787159#0 76443156#4 -76443372#2 --69740 -76442079#3 76442079#2 76442079#5 76441694#0 -76441437#1 76441787#6 258787159#3 -76441202#0 76443156#0 76443372#4 76442471#3 76441065#1 -76441787#1 -76445041#7" departSpeed="max"  departPos="random"  type="fastCar"/>
    <trip id="24" depart="2.40" from="-362066955#1" to="-258787159#0" via="76441787#10 -76443372#5 305807458#0 76443355#1 76441495#0 -76441787#8 76441141#0 76442079#4 76445041#7 76441787#2 76441065#0 76445041#6 76441958#5 -76441807#3 362066955#0 76441526 -76443372#6 76443372#0 76443176#4 258787159#1 76441807#3 76442079#2 76443176#0 -76445041#6 -76442481 -76441531#4 -76442648#2 -76443372#5 76443355#0 76441141#6 -76443156#1 -76441787#1 76443372#2 76441437#3 76443156#2 258787159#2 -76443355#3 -76443372#4 -76441495#1 -76443156#3 76443372#5 76442471#4 76441531#2 -76443355#0 76442471#3 76441694#2 76443031#2 258787159#1 -362066955#2 76445041#0" departSpeed="max"  departPos="random"  type="fastCar"/>
    <trip id="25" depart="2.50" from="-76445041#7" to="-76419221#2" via="76443747#1 76443372#5 -76445041#4 --69740 -76441694#0 76443355#2 76441164#0 -76443156#0 76441141#4 76441787#5 76441141#3 -76441531#4 -76443747#1 76419221#1 76441141#2 76442079#4 -361431608#1 -76441787#5 -76441164#0 76441531#0 -76441385#0 -76441669 361431608#0 -76443355#0 -76441437#1 76441958#4 -362066955#3 -76445041#4 -361431608#3 -76441787#2 76441164#1 -76441694#2 76443031#1 -76442648#2 -76443747#1 76443382 76441531#0 -362066956#3 76441437#1 -76441958#5 76443031#1 76441787#10 76419487 -362066955#3 76441437#3 -76441764 76443156#1 76443372#6 76445041#1 76441164#6" departSpeed="max"  departPos="random"  type="fastCar"/>
    <trip id="26" depart="2.60" from="-76419221#1" to="-76441807#1" via="-76442090#2 76443382 -76441958#0 -76441164#3 76442090#2 -76441065#1 -76443156#0 -362066956#0 -361431608#2 76441164#6 -76443156#0 76419221#1 -76443355#2 -76441164#8 -76441807#2 76441531#1 76441787#9 76441141#0 -76419487 -258787159#0 -76441065#0 76443031#0 76441531#2 -76445041#1 76441495#2 76442090#1 -361431608#4 -305807458#2 -152627338#1 -76445041#6 76442471#2 -76441787#6 76443372#7 -362066955#0 -258787159#2 -76441807#1 76443355#3 -76443747#1 76443031#1 -76442471#1 -76443372#5 76443176#0 76445041#2 -361431608#4 -76441807#1 -258787159#5 -76443372#7 76443156#0 76441817 -76443372#7" departSpeed="max"  departPos="random"  type="fastCar"/>
    <trip id="27" depart="2.70" from="-76443156#1" to="-76441531#6" via="-76441531#2 258787159#4 76443355#3 -76445041#2 76445041#1 -76441495#2 362066956#0 305807458#0 -76442471#3 76441787#6 -305807458#1 76443156#2 76442648#1 -76419221#0 -76443382 76443212 362066955#2 76441067#1 76442471#3 -76441202#0 -76445041#8 -76443372#3 76441164#8 -76442090#1 76443372#2 -76443747#2 -76443372#7 -76442090#2 -76441437#0 -321748518 -76441787#4 76443747#1 76442648#0 76443747#1 -76441164#6 76441531#0 76442090#3 -76441531#0 -76443156#3 258787159#4 76443355#2 76441958#5 -76443372#4 76419221#1 -362066955#3 76442471#0 76441164#7 76441787#0 76419221#0 -76419221#2" departSpeed="max"  departPos="random"  type="fastCar"/>
    <trip id="28" depart="2.80" from="362066955#1" to="76441787#9" via="76443212 -76445041#3 -76441164#2 76441958#3 -76441495#0 76441958#2 76443372#5 -258787159#3 -76442471#4 -76441437#2 -76445041#6 -362066955#4 -76442471#1 76443372#4 258787159#5 76441065#2 -69740 76441164#4 76442079#4 76442090#3 76442079#4 -258787159#3 76443156#3 -76441958#5 362066955#1 -76445041#3 -76442079#5 76441141#1 -76441495#2 361431608#0 -76441787#4 76441141#3 -76441385#2 258787159#2 76441164#0 76441787#0 -76441164#3 76441958#5 -76441787#2 -76441807#3 -76441787#8 -76442471#2 -76441437#2 361431608#4 76443747#0 76445041#0 -76443355#3 -76441958#0 76445041#4 76443212" departSpeed="max"  departPos="random"  type="fastCar"/>
    <trip id="29" depart="2.90" from="-76442079#2" to="-76441787#9" via="-76441764 -76443355#3 76442090#3 76441669 -305807458#2 76442648#2 76441531#3 76443372#8 76442471#0 76441787#9 76441385#0 76441531#1 -76443355#0 -76443372#1 76442079#1 152627338#0 76443747#3 -76441531#0 -76443156#3 76443156#0 -76442090#1 76441164#8 -76441164#8 76441531#4 --69740 -76442079#3 76445041#2 -69738 -76445041#1 76441385#1 361431608#2 -76442079#3 -305807458#1 76441787#2 76442079#3 76441787#8 -305807458#2 76441787#3 -76441164#5 -76441526 152627338#1 76443372#1 76442079#4 76442079#5 76442471#4 76441164#6 76441202#0 76443372#8 -76443372#8 76441807#2" departSpeed="max"  departPos="random"  type="fastCar"/>
    <trip id="30" depart="3.00" from="-76442090#1" to="-76441787#0" via="76443212 -76442079#3 -76441164#8 76441531#4 -152627338#0 -76441787#2 -69740 152627338#1 76441531#5 76441164#1 76441202#0 76442090#0 -76441694#2 76441164#7 -76442079#4 -76441385#1 76419221#0 -76441787#2 -76441807#1 -76441164#6 -76441164#5 -362066956#0 -362066955#1 -76442079#2 -258787159#5 -362066955#0 76443372#6 76443372#3 76441787#7 76441141#3 76443212 76441787#2 76445041#6 -76441164#6 76441141#4 -76441531#6 76441164#3 76419221#1 76441531#2 76441202#2 76445041#1 361431608#3 76441164#8 -76441787#9 -76445041#7 76441787#10 -76443372#4 76442079#3 76443156#3 76443212" departSpeed="max"  departPos="random"  type="fastCar"/>
    <trip id="31" depart="3.10" from="-258787159#1" to="258787159#5" via="76442079#1 -76442079#1 76442246 -76441958#5 76443372#0 76443031#2 361431608#4 76441531#0 76441817 76441531#0 76443156#2 76443747#2 76442471#2 76441787#2 -361431608#3 -362066955#1 -76441495#2 76445041#0 76441164#2 76419221#2 -76443156#1 76441958#1 76443031#0 -362066955#1 76443372#0 361431608#3 362066956#3 76443372#1 76443176#1 -76443372#0 76441495#1 258787159#4 -76441787#10 -76419487 76441141#3 76441164#3 76443355#0 76441141#0 76441495#0 361431608#4 76443355#3 -76443156#2 76443747#3 76441531#1 -76441385#0 76419221#1 -362066955#1 -76445041#4 -76445041#8 -76443156#0" departSpeed="max"  departPos="random"  type="fastCar"/>
    <trip id="32" depart="3.20" from="76441065#0" to="-258787159#5" via="76443156#2 305807458#1 -76441531#5 76445041#3 -76442481 -76443372#1 76445041#5 -76442079#4 -76441164#1 76441437#2 76441164#5 76443355#0 76441526 -76443747#0 76441141#0 305807458#1 -258787159#3 -76441531#4 76443156#1 -76442079#0 -76441531#3 -76441164#0 -76443355#3 76441164#8 -76441385#3 76441787#1 -362066956#3 -76441202#1 -362066956#0 76441958#0 76441065#0 76442471#1 76442648#0 76441531#6 76441764 76443747#3 -76441807#0 -76441202#0 -76441067#2 76441531#2 76441807#3 76441141#2 76443156#0 76441787#10 76445041#3 76445041#1 76443355#1 -76443355#3 -76441764 76442471#2" departSpeed="max"  departPos="random"  type="fastCar"/>
    <trip id="33" depart="3.30" from="-76441164#8" to="-76441065#0" via="76445041#3 76443382 76441669 -76441669 76441694#0 76443372#4 76442471#1 76441495#0 -76445041#0 76441141#4 -76443156#2 362066955#5 -362066955#2 76442471#1 76442079#2 -76441787#9 76445041#4 76445041#3 -76445041#4 362066955#2 76442079#0 -76441694#2 76441531#6 -76443382 -258787159#3 76442090#3 -76441202#2 -76441669 -76445041#4 -76443382 76441437#2 -76441164#1 76441495#0 -361431608#3 76443372#1 -76441787#5 -69738 76441065#2 76441065#0 -76443747#3 76443355#0 76443355#2 76441164#0 305807458#0 76441141#3 76445041#1 76441958#0 76441385#2 362066956#2 152627338#1" departSpeed="max"  departPos="random"  type="fastCar"/>
    <trip id="34" depart="3.40" from="-76441764" to="-76442583#2" via="76442648#0 -76442090#1 76442246 362066956#4 76441958#5 76445041#0 -76441787#4 -76441531#4 -362066955#3 76443176#0 76442471#4 76441531#6 76441787#8 -76445041#6 362066955#2 362066956#0 -76441065#1 362066955#5 76442246 76443372#4 -76443747#2 76443355#2 76441141#1 76443156#1 -76442090#2 -76441764 76441141#4 -258787159#0 362066956#4 -76442079#0 -362066955#4 -361431608#0 258787159#1 -76441164#3 76441495#0 305807458#1 152627338#0 76441164#1 76441531#5 -362066956#3 -76443747#3 -76441669 76441164#5 76441958#3 76442246 76441817 258787159#1 -76441437#0 -76445041#0 -258787159#3" departSpeed="max"  departPos="random"  type="fastCar"/>
    <trip id="35" depart="3.50" from="-76442090#2" to="-76443156#0" via="258787159#5 362066955#4 76441141#2 -76442471#1 362066955#5 362066956#3 305807458#0 361431608#2 -76441437#3 -76441202#1 -76441067#2 -362066955#5 -76445041#1 -361431608#2 -76441164#0 76441141#3 -76442079#4 76445041#4 76441067#3 76441164#6 76441385#2 76443156#0 -76441807#2 76441495#2 -76441694#0 76442471#1 76419487 76443372#0 76441764 361431608#1 76441694#2 305807458#2 -76441495#1 -361431608#1 76441164#5 76443031#2 -152627338#0 -305807458#2 76441787#10 -362066956#3 76441202#0 76419221#1 76441141#0 76442471#3 258787159#3 76445041#3 -76445041#3 -76442471#2 -76441164#2 -305807458#0" departSpeed="max"  departPos="random"  type="fastCar"/>
    <trip id="36" depart="3.60" from="-76441065#1" to="-76443156#0" via="76441694#0 -76441958#5 -258787159#0 76441669 -362066956#2 76442246 76441065#1 76442471#3 76442079#3 -76441202#0 76441817 -258787159#1 -76441958#2 76441164#5 -76441787#3 -76445041#5 76441065#2 362066955#1 76445041#3 361431608#4 76441807#2 -76441787#6 76441067#3 76441787#5 -362066955#4 -258787159#5 76441385#3 76441067#2 -76441958#5 -76441067#0 -76443156#3 76442079#3 -76443355#1 76445041#0 258787159#0 76441787#8 -76441437#2 76419221#0 76441164#6 -362066956#1 -76443355#3 76442090#1 76443372#8 258787159#2 -361431608#4 305807458#1 76441807#3 -76443372#0 76445041#7 362066955#2" departSpeed="max"  departPos="random"  type="fastCar"/>
    <trip id="37" depart="3.70" from="-76442648#1" to="76441531#6" via="76442471#3 76441164#4 76441495#1 76441164#6 -76443372#4 76441437#2 76442471#3 76441495#0 -76443372#4 76445041#0 76442648#2 -76441694#1 76441495#1 -258787159#5 76441067#1 -76445041#0 76441694#1 -76441437#2 76442471#2 -76443372#1 -76441531#2 -76441065#0 258787159#1 76443156#1 76441141#5 258787159#0 152627338#1 76442471#0 -76441764 -76441164#5 -76441385#2 76441787#5 76442471#1 76441385#0 76441958#1 -76441526 76441669 76441807#1 76442079#1 -76443156#3 -76441164#1 258787159#3 -258787159#1 362066955#3 -76441817 -76441764 76441807#2 -361431608#1 -76441437#2 -76442471#3" departSpeed="max"  departPos="random"  type="fastCar"/>
    <trip id="38" depart="3.80" from="76443355#2" to="76441807#1" via="76441958#3 76442079#3 76441531#1 76419221#2 361431608#3 76441807#1 -76443747#3 -76441164#3 -76441787#6 -76445041#7 -76443372#3 -76441526 76441495#1 -362066955#4 76443156#2 -258787159#5 -76443372#1 76445041#3 76442648#2 362066955#4 305807458#2 76443355#1 76442079#1 76441958#4 362066956#2 76441958#2 76419221#1 76445041#0 -305807458#2 -76441531#0 -76441787#9 76441164#3 -76441787#2 76445041#0 -76441164#2 76443372#2 -76442471#1 -76419487 76445041#4 76441065#1 -76441531#6 76442246 -76441531#2 361431608#4 -76443156#1 -76441764 -76443372#4 361431608#2 362066955#4 76441531#2" departSpeed="max"  departPos="random"  type="fastCar"/>
    <trip id="39" depart="3.90" from="76441437#0" to="258787159#0" via="76443372#5 258787159#3 76443156#0 -76442648#0 -76441958#2 -76441669 -76441385#1 76441141#6 362066956#1 -258787159#0 -76441164#4 76441141#6 76443031#1 -362066956#4 -76443156#3 -76441531#6 -76443372#5 76442471#2 76441495#2 76443031#1 362066956#2 362066956#4 76445041#2 76442079#2 76443156#2 -76441164#0 76443176#4 -76442079#2 -76441531#2 -76443747#0 76441164#2 -76443156#0 76445041#4 362066955#2 -76441164#4 -76441531#6 76443156#2 -76445041#5 -69738 362066956#0 76441787#9 76442471#1 76445041#0 76441531#2 76441141#1 76441958#2 -76441787#9 -76445041#3 76441164#2 -76442648#2" departSpeed="max"  departPos="random"  type="fastCar"/>
    <trip id="40" depart="4.00" from="76441958#0" to="76441787#0" via="-76441787#1 -76445041#4 152627338#1 76443747#0 76441694#2 -362066955#5 -76445041#1 76445041#7 -76441065#1 76442648#1 361431608#2 -362066956#0 76443156#1 -76442471#4 -76442481 -76419221#0 76443176#3 -258787159#2 76441817 -152627338#1 -258787159#4 76441526 76443372#8 -258787159#0 76443747#2 -76441531#4 -76443747#3 -76441787#7 -76441807#0 76443372#4 -76441065#0 -76445041#2 76442471#3 76441437#1 258787159#5 76441067#0 -76443156#2 -362066955#3 -76443372#7 -258787159#5 -361431608#3 -76441958#2 -76441067#0 76441495#2 -76442648#0 258787159#1 258787159#4 76441531#1 -76441787#6 -76441531#2" departSpeed="max"  departPos="random"  type="fastCar"/>