<?xml version="1.0" encoding="UTF-8"?>

<!-- generated on Sat Mar  4 00:42:16 2017 by SUMO duarouter Version 0.25.0D
<?xml version="1.0" encoding="UTF-8"?>

<configuration xmlns:xsi="http://www.w3.org/2001/XMLSchema-instance" xsi:noNamespaceSchemaLocation="http://sumo.dlr.de/xsd/duarouterConfiguration.xsd">

    <input>
        <net-file value="ottawa.net.xml"/>
        <additional-files value="ottawa.1500.randomTrips.xml"/>
        <trip-files value="ottawa.1500.trips.xml"/>
    </input>

    <output>
        <output-file value="ottawa.1500.routes.xml"/>
    </output>

    <processing>
        <ignore-errors value="true"/>
    </processing>

    <time>
        <begin value="0.0"/>
        <end value="150.0"/>
    </time>

    <report>
        <no-warnings value="true"/>
        <no-step-log value="true"/>
    </report>

</configuration>
-->

<routes xmlns:xsi="http://www.w3.org/2001/XMLSchema-instance" xsi:noNamespaceSchemaLocation="http://sumo.dlr.de/xsd/routes_file.xsd">
    <vehicle id="0" depart="0.00" departPos="random" departSpeed="max">
        <route edges="305807458#2 -76441531#7 -76441531#6 -76441531#5 -76441531#4 -76441531#3 -76441531#2 -76441531#1 -76441531#0 258787159#6 -76442583#4 -76442583#3 -76442583#2 -76442583#1 -76442583#0 -76441787#10 -76441787#9 -76441787#8 -76441787#7 -76441787#6"/>
    </vehicle>
    <vehicle id="1" depart="0.10" departPos="random" departSpeed="max">
        <route edges="-76442079#5 -258787159#2 -76442443#7 -76441526 362066956#4"/>
    </vehicle>
    <vehicle id="2" depart="0.20" departPos="random" departSpeed="max">
        <route edges="-76441787#7 -76441787#6 -76441787#5 -76441787#4 -76441787#3 -76441787#2 -76441787#1 76443031#0 -76441164#0 76441065#2"/>
    </vehicle>
    <vehicle id="3" depart="0.30" departPos="random" departSpeed="max">
        <route edges="76443372#2 76442648#1 76442648#2 76441787#3 76441787#4 76441787#5 76441958#0 76441958#1 76441958#2 76441958#3 76441958#4 258787159#4 258787159#5 258787159#6 -76442583#4 -76442583#3 -76442583#2 -76442583#1 -76442583#0 -76441787#10 -76441787#9 -76441787#8 -76441787#7 -76441787#6 -76441787#5 -76443747#3 -76441164#3 76442648#2 76441787#3 76441787#4 76441787#5 76441958#0 76441958#1 76441958#2 362066955#3 76442471#2 -361431608#2 -361431608#1 -361431608#0 76442443#7 258787159#2 258787159#3 258787159#4 258787159#5 76441531#0 76442018#0 76442018#1 -258787159#6"/>
    </vehicle>
    <vehicle id="4" depart="0.40" departPos="random" departSpeed="max">
        <route edges="-76442079#0 -76441787#3 -76441787#2 -76441787#1 -76441787#0 -321748518 -76441065#1 76443372#0 76443031#2 -76445041#0 76441065#0"/>
    </vehicle>
    <vehicle id="5" depart="0.50" departPos="random" departSpeed="max">
        <route edges="258787159#5 76441531#0 76441531#1 76441437#0 76441437#1 -76441202#1 -76441202#0 76419221#1 76419221#2 305807458#0 305807458#1 305807458#2 -76441531#7 -76441531#6 -76441531#5 -76441531#4 -76441531#3 -76441531#2 -76441531#1 -76441531#0 258787159#6 -76442583#4 -76442583#3 -76442583#2 -76442583#1 -76442583#0 -76441787#10 -76441787#9 -76441787#8 -76441787#7 -76441787#6 -76443355#3 76441164#5 76441164#6 76441164#7 76441164#8 -76441807#2 -76441807#1 -76441807#0 -76443156#3 76442090#0 76445041#7 76445041#8 76441807#1 76441807#2 76441807#3 76441787#10 76442583#0 76442583#1 76442583#2 76442583#3 76442583#4 -76442018#1 76441904 -76441234#0 -258787159#7 -76442583#4 -76442583#3 -76442583#2 -76441669 -76441495#0 76441141#6 76442583#1 76442583#2 76442583#3 76442583#4 258787159#7 76441234#0 76441234#1 76441234#2 76441234#3 -76443587 -76441365#2 -76441365#1 -76441531#4 -76441531#3 -76441531#2 -76441531#1 -76441531#0 258787159#6 -76442583#4 -76442583#3 -76442583#2 -76442583#1 -76442583#0 -76441787#10 -76441787#9 -76441787#8 -76441787#7 -76441385#3 76441164#6 76441164#7 76441164#8 -76441807#2 -76441807#1 -76445041#8 76441067#1 76443372#8 76441807#2 76441807#3 -76441787#9 -76441787#8 -76441787#7 -76441787#6 -76441787#5 -76441787#4 -76441787#3 -76441787#2 76442443#3 76441141#2 76441141#3 76441958#1 76441958#2 76441958#3 76441958#4 258787159#4 258787159#5 258787159#6 -76442583#4 -76442583#3 -76442583#2 -76442583#1 -76442583#0 -76441787#10 -76441807#3 -76441807#2 -76441807#1 -76441807#0 -76443156#3 -76443156#2 -76443156#1 -76443156#0 76443747#0 -76445041#3 -76445041#2 76442443#0 -76443372#1 -76443372#0 76441065#1 76441065#2 76441787#0 76441787#1 76441787#2 76441787#3 76441787#4 76441787#5 76441787#6 76441787#7 76441787#8 76441787#9 76441787#10 76442583#0 76442583#1 76442583#2 76442583#3 76442583#4 -258787159#6 76441531#0 76441531#1 76441437#0 76441437#1 -76441202#1 -76442443#8 -76442443#7 -76442443#6 -76442443#5 -76442443#4 -76442443#3 76441787#2 76441787#3 76441787#4 76441787#5 76441787#6 76441787#7 76441787#8 76441787#9 -76441807#3 -76441164#8 76441067#3 -76441787#8 -76441787#7 -76441385#3 -76441164#5 -76441164#4 -76441164#3 -76441164#2 -76441164#1 -76441164#0 -76441065#1 -76441065#0 76445041#0 76445041#1 76442443#0 76442443#1 76442443#2 76441787#2 76441787#3 76441787#4 76441787#5 76441787#6 76441787#7 76441787#8 76441787#9 76441787#10 76442583#0 76442583#1 76442583#2 76442583#3 76442583#4 -258787159#6 76441531#0 76441531#1 76441531#2 76441531#3 76441531#4 76441531#5 76441531#6 76441531#7 -305807458#2 -305807458#1 -305807458#0 -76419221#2 -76419221#1 -76419221#0 258787159#1 -76442443#7 -76442443#6 -76442443#5 -76442443#4 -76442443#3 76441787#2 76441787#3 76441787#4 -76443747#3 -76443747#2 -76443747#1 -76445041#3 76442648#0 -76443372#2 -76443372#1 -76443372#0 76441065#1 76441065#2 -367636030#1 76443312#0 76441141#0 76441141#1 76441141#2 -76442079#0 -76441787#3 -76441787#2 -76441787#1 -76441787#0 -321748518 -76441065#1 76443372#0 76443031#2 -76445041#0 76441065#0 76441065#1 76441065#2 76441787#0 76441787#1 76441787#2 76441787#3 76441787#4 76441787#5 76441787#6 76441787#7 76441787#8 76441787#9 76441787#10 76442583#0 76442583#1 76442583#2 76442583#3 76442583#4 -258787159#6 76441531#0 76441531#1 76441531#2 76441531#3 76441531#4 76441531#5 76442150 -76441482#1 -76441365#1 -76441531#4 -76441531#3 -76441531#2 -76441531#1 -76441531#0 258787159#6 -76442583#4 -76442583#3 -76442583#2 -76442583#1 -76442583#0 -76441787#10 -76441807#3 -76441807#2 -76443372#8 -76443372#7 76442090#2 76442090#3 -76441787#7 -76441787#6 -76441787#5 -76441787#4 -76441787#3 -76441787#2 76442443#3 76442443#4 76442443#5 76442443#6 76442443#7 -258787159#1 76419221#0 76419221#1 76419221#2 305807458#0 305807458#1 -139108139 -76441437#4 -76441437#3 -76441437#2 -76441437#1 -76441437#0 76441531#2 76441531#3 -152673567#1 -152673567#0 -76441234#1 -76441234#0 -258787159#7 -76442583#4 -76442583#3 -76442583#2 -76442583#1 -76442583#0 -76441787#10 -76441787#9 -76441787#8 -76441787#7 -76441787#6 -76441787#5 -76441787#4 -76441787#3 -76442648#2 -76442648#1 -76442648#0 -76445041#2 -76445041#1 -76445041#0 76441065#0 76441065#1 76441065#2 76441787#0 76441787#1 76441787#2 76441787#3 76441787#4 76441787#5 76441787#6 76441787#7 76441787#8 76441787#9 76441787#10 76442583#0 76442583#1 76442583#2 76442583#3 76442583#4 -258787159#6 76441531#0 76441531#1 76441531#2 76441531#3 76441531#4 76441531#5 76441531#6 76441531#7 -305807458#2"/>
    </vehicle>
    <vehicle id="7" depart="0.70" departPos="random" departSpeed="max">
        <route edges="76441385#3 76441787#7 76441787#8 -76441067#3 76441164#8 76441807#3 -76441787#9 -76441787#8 -76441787#7 -76441787#6 -76441787#5 -76441787#4 76442079#0 76442079#1 76442079#2 76442079#3 361431608#1 -76441958#3 -76441958#2 -76441958#1 -76441958#0 76441787#6 76441787#7 76441787#8 76441787#9 76441787#10 76442583#0 76442583#1 -76441669 -76441495#0 76441141#6 -76442583#0 -76441787#10 -76441787#9 -76441787#8 -76441787#7 -76441385#3 76441164#6 76441164#7 76441164#8 76441807#3 76441787#10 76442583#0 76442583#1 76442583#2 -362066955#5 76441495#2 -361431608#3 -76442471#2 -76442471#1 76443176#1 76443176#2 76443176#3 76443176#4 -362066956#1 -362066956#0 76441787#0 76441787#1 76442443#3 76442443#4 76442443#5 76442443#6 76442443#7 -258787159#1 76419221#0 76419221#1 76419221#2 305807458#0 305807458#1 305807458#2 -76441531#7 -76441531#6 -76441531#5 -76441531#4 -76441531#3 -76441531#2 -76441531#1 -76441531#0 258787159#6 -76442583#4 -76442583#3 -76442583#2 -76442583#1 -76442583#0 -76441787#10 -76441807#3 -76441164#8 -76441067#2 76443372#8 76441807#2 76441807#3 76441787#10 76442583#0 76442583#1 76442583#2 76442583#3 76442583#4 -258787159#6 76441531#0 76442018#0 76442018#1 -76442583#4 -76442583#3 -76442583#2 -76442583#1 -76442583#0 -76441787#10 -76441807#3 -76441164#8 76441067#3 -76441787#8 -76441787#7 -76441787#6 -76441787#5 -76441787#4 -76441787#3 -76441787#2 -76441787#1 -76441787#0 -321748518 -76441065#1 -76441065#0 76445041#0 76445041#1 76442443#0 76443372#2 -76442648#0 -76445041#2 -76445041#1 -76445041#0 76441065#0 76441065#1 76441065#2 362066956#0 362066956#1 362066956#2 362066956#3 362066956#4 76419221#0 76419221#1 76419221#2 305807458#0 305807458#1 -139108139 -76441437#4 -76441437#3 -76441437#2 -76441437#1 -76441437#0 -76441531#1 -76441531#0 258787159#6 -76442583#4 -76442583#3 -76442583#2 -76442583#1 -76442583#0 -76441787#10 -76441807#3 -76441807#2 -76443372#8 -76443372#7 -76443372#6 -76441385#1 -76445041#5 -76445041#4 -76443747#0 76443156#0 76443156#1 76443156#2 76443156#3 76441067#0 76441067#1 76443372#8 76441807#2 76441807#3 76441787#10 76442583#0 76442583#1 -76441669 76443176#0 76442471#1 76442471#2 76442471#3 258787159#5 76441531#0 76441531#1 76441531#2 76441531#3 76441531#4 76441365#1 -76441482#0 152673567#1 -76441531#3 -76441531#2 -76441531#1 -76441531#0 -258787159#5 -258787159#4 -258787159#3 -258787159#2 -76442443#7 -76442443#6 362066955#1 -76442079#2 -76442079#1 -76442079#0 76441787#4 76441787#5 -76443355#3 -76441164#4 -76441164#3 -76441164#2 -76441164#1 -76441164#0 -76441065#1 -76441065#0 76445041#0 76445041#1 76445041#2 76445041#3 -76443747#0 76443156#0 76443156#1 76443156#2 76443156#3 76443156#4 76441807#1 76441807#2 76441807#3 76441787#10 76442583#0 76442583#1 76442583#2 76442583#3 76442583#4 -258787159#6 -258787159#5 -258787159#4 -258787159#3 -258787159#2 -258787159#1 -362066956#4 -362066956#3 -362066956#2 -362066956#1 -362066956#0 -321748518 -76441065#1 -76441065#0 76445041#0 76445041#1 76445041#2 76445041#3 -76443747#0 76443156#0 76443355#0 76445041#5 76445041#6 76445041#7 76445041#8 76441807#1 76441807#2 76441807#3 76441787#10 76442583#0 76442583#1 76442583#2 76442583#3 76442583#4 258787159#7 76441234#0 76441234#1 76441234#2 76441234#3 -76443261 -76442150 -76441531#5 -76441531#4 -76441531#3 -76441531#2 76441437#0 76441437#1 -76441202#1 -76441202#0 76419221#1 76419221#2 305807458#0 305807458#1 305807458#2 -76441531#7 -76441531#6 -76441531#5 -76441531#4 -76441531#3 -76441531#2 -76441531#1 -76441531#0 258787159#6 -76442018#1 -76442018#0 -76441531#0 -258787159#5 -258787159#4 -258787159#3 -258787159#2 -258787159#1 76419221#0 76419221#1 76419221#2 305807458#0 305807458#1 305807458#2"/>
    </vehicle>
    <vehicle id="10" depart="1.00" departPos="random" departSpeed="max">
        <route edges="-258787159#4 -76441958#4 -76441958#3 -76441958#2 -76441958#1 -76441958#0 -76441787#5 -76441787#4 -76441787#3 -76441787#2 -76441787#1 -76441787#0 -321748518"/>
    </vehicle>
    <vehicle id="11" depart="1.10" departPos="random" departSpeed="max">
        <route edges="152627338#1 76441531#7 -305807458#2"/>
    </vehicle>
    <vehicle id="12" depart="1.20" departPos="random" departSpeed="max">
        <route edges="76441958#3 -361431608#1 -361431608#0 -76441526 362066956#4"/>
    </vehicle>
    <vehicle id="13" depart="1.30" departPos="random" departSpeed="max">
        <route edges="-76443156#3 76442090#0 76445041#7 76445041#8 76441807#1 76441807#2 76441807#3 -76441787#9 -76441787#8 -76441787#7 -76441787#6"/>
    </vehicle>
    <vehicle id="14" depart="1.40" departPos="random" departSpeed="max">
        <route edges="361431608#3 -76441495#2 -362066955#4 -362066955#3 76441958#3 -361431608#1 76442079#4 258787159#3"/>
    </vehicle>
    <vehicle id="15" depart="1.50" departPos="random" departSpeed="max">
        <route edges="76443355#0 -76445041#4 -76445041#3 -76445041#2 76442443#0 -76443372#1 -76443372#0 -76441065#0"/>
    </vehicle>
    <vehicle id="16" depart="1.60" departPos="random" departSpeed="max">
        <route edges="-76441202#2 -76441202#1 -76442443#8 -76442443#7 -76441526 362066956#4"/>
    </vehicle>
    <vehicle id="17" depart="1.70" departPos="random" departSpeed="max">
        <route edges="-76441164#8 -76441164#7 -76441164#6 -76441164#5 -76441164#4 -76441164#3 -76441164#2 -76441164#1 -76441164#0 76441065#2"/>
    </vehicle>
    <vehicle id="18" depart="1.80" departPos="random" departSpeed="max">
        <route edges="-76419221#2 -76419221#1 -76419221#0 258787159#1 258787159#2 -76442079#4 361431608#1 76441958#4 -258787159#3"/>
    </vehicle>
    <vehicle id="19" depart="1.90" departPos="random" departSpeed="max">
        <route edges="-76443355#3 76441164#5 76441164#6 76441164#7 76441164#8 -76441807#2 -76441807#1"/>
    </vehicle>
    <vehicle id="20" depart="2.00" departPos="random" departSpeed="max">
        <route edges="76443372#5 76443372#6 76443372#7 76441067#2 -76441164#7 -76442090#2 -76443372#6 76441385#2 76441385#3 -76441787#6 -76441787#5 -76441787#4 -76441787#3 -76441787#2 76442443#3 76442443#4 76442443#5 76442443#6 76442443#7 -258787159#1 76419221#0 76419221#1 76419221#2 305807458#0 305807458#1 305807458#2 -76441531#7 -76441531#6 -76441531#5 -76441531#4 -76441531#3 -76441531#2 -76441531#1 -76441531#0 -258787159#5 -258787159#4 -258787159#3 -258787159#2 76442443#8 76441202#1 -76441437#1 -76441437#0 76441531#2 76441531#3 -152673567#1 -152673567#0 76441234#2 -76441365#3 -76441365#2 -76441365#1 -76441531#4 -76441531#3 -76441531#2 -76441531#1 -76441531#0 -258787159#5 -258787159#4 -258787159#3 -258787159#2 -76442443#7 -76442443#6 -76442443#5 76443176#4 362066956#2 362066955#0 -76442443#5 -76442443#4 -76442443#3 76441787#2 76441787#3 76441787#4 76441787#5 76441787#6 76441787#7 76441787#8 -76441067#3 -76441067#2 76443372#8 76441807#2 76441807#3 -76441787#9 -76441787#8 -76441787#7 -76441787#6 -76441787#5 -76441787#4 -76441787#3 -76441787#2 -76441787#1 -76441787#0 362066956#0 362066956#1 76443176#5 -76443312#1 -76443312#0 367636030#0 76441787#0 76441787#1 76441787#2 76441787#3 76441787#4 76441787#5 76441787#6 76441787#7 76441787#8 76441787#9 76441787#10 76442583#0 76442583#1 76442583#2 76442583#3 76442583#4 -258787159#6 76441531#0 76441531#1 76441531#2 76441531#3 76441531#4 76441531#5 76441531#6 -152627338#1 -152627338#0 139108139 305807458#2 -76441531#7 -152627338#1 -152627338#0 -76441437#4 -76441694#1 -76442443#10 -76419487 76419221#2 305807458#0 305807458#1 305807458#2 -76441531#7 -76441531#6 -76441531#5 -76441531#4 -76441531#3 -76441531#2 -76441531#1 -76441531#0 -258787159#5 -258787159#4 -76441958#4 -76441958#3 -76441958#2 -76441958#1 76441141#4 76442471#0 76443176#1 -76441958#1 -76441958#0 -76441787#5 -76443747#3 -76443747#2 76443372#4 76443355#2 76443355#3 76441958#0 76441958#1 76441958#2 -362066955#2 76442079#3 76442079#4 258787159#3 258787159#4 258787159#5 76441531#0 76441531#1 76441531#2 76441531#3 -152673567#1 -152673567#0 76441234#2 -76441365#3 -76441365#2 -76441365#1 -76441531#4 -76441531#3 -76441531#2 76441437#0 76441437#1 -76441202#1 -76442443#8 -76442443#7 -76442443#6 -76442443#5 -76442443#4 -76442443#3 76441787#2 76441787#3 76441787#4 76441787#5 76441787#6 76441787#7 76441787#8 76441787#9 -76441807#3 -76441807#2 -76441807#1 -76445041#8 -76445041#7 76442090#1 76442090#2 76442090#3 -76441787#7 -76441787#6 -76441787#5 -76441787#4 -76441787#3 -76441787#2 -76441787#1 -76441787#0 -367636030#1 76443312#0 76441141#0 -362066956#0 -321748518 -76441065#1 76443372#0 76443031#2 -76445041#0 76441065#0 76441065#1 76441065#2 362066956#0 362066956#1 362066956#2 362066956#3 362066956#4 76419221#0 76419221#1 76419221#2 305807458#0 305807458#1 305807458#2 -76441531#7 -76441531#6 -76441531#5 -76441531#4 -76441531#3 -76441531#2 -76441531#1 -76441531#0 -258787159#5 -258787159#4 -258787159#3 -76442079#4 -76442079#3 362066955#2 -76441958#2 -76441958#1 -76441958#0 76441787#6 76441787#7 76441787#8 76441787#9 76441787#10 76442583#0 76442583#1 76442583#2 76442583#3 76442583#4 -258787159#6 76441531#0 76441531#1 76441437#0 76441437#1 76441437#2 76441437#3 -76441694#1 -76442443#10 -76442443#9 -76442443#8 -76442443#7 -76442443#6 -76442443#5 -76442443#4 -76442443#3 76441787#2 76441787#3 76441787#4 76441787#5 -76443355#3 -76443355#2 -76443355#1 76445041#5 -76441385#0 -76443156#1 76443355#0 76445041#5 76445041#6 76445041#7 76445041#8 76441807#1 76441807#2 -76441164#8 76441067#3 -76441787#8 -76441787#7 -76441787#6 -76441787#5 -76441787#4 -76441787#3 -76441787#2 -76441787#1 -76441787#0 362066956#0 76441141#1 -76442443#3 76441787#2 76441787#3 76441787#4 76441787#5 76441787#6 76441787#7 76441787#8 76441787#9 76441787#10 76442583#0 76442583#1 76442583#2 76442583#3 76442583#4 -258787159#6 -258787159#5 -258787159#4 -76441958#4 -76441958#3 -76441958#2 -76441958#1 -76441958#0 -76441787#5 -76441787#4 -76441787#3 -76441787#2 -76441787#1 76443031#0 -76441164#0 76441065#2"/>
    </vehicle>
    <vehicle id="21" depart="2.10" departPos="random" departSpeed="max">
        <route edges="-76441787#1 -76441787#0 362066956#0 76441141#1 76442443#4 76442443#5 76442443#6 76442443#7 -258787159#1 -362066956#4"/>
    </vehicle>
    <vehicle id="22" depart="2.20" departPos="random" departSpeed="max">
        <route edges="-76443372#0 76441065#1 76441065#2 76441787#0 76441787#1 76441787#2 76441787#3 76441787#4 76441787#5 76441787#6 76441787#7 76441787#8 76441787#9 76441787#10 76442583#0 76442583#1 76442583#2 76442583#3 76442583#4 -258787159#6"/>
    </vehicle>
    <vehicle id="23" depart="2.30" departPos="random" departSpeed="max">
        <route edges="76441065#2 76441787#0 76441787#1 76441787#2 76441787#3 76441787#4 76441787#5 76441787#6 76441787#7 76441787#8 76441787#9 76441787#10 76442583#0 76442583#1 76442583#2 76442583#3 76442583#4 -76442018#1 -76442018#0 -76441531#0 258787159#6 -76442583#4 -76442583#3 -76442583#2 -76442583#1 -76442583#0 -76441787#10 -76441787#9 -76441787#8 -76441787#7 -76441787#6 -76443355#3 -76443355#2 -76443372#4 76443747#2 76443747#3 -76441787#4 -76441787#3 -76441787#2 -76441787#1 -76441787#0 362066956#0 76441141#1 76441141#2 76441141#3 76441958#1 76443176#2 76442079#2 76442079#3 76442079#4 -258787159#2 -258787159#1 76419221#0 76419221#1 76419221#2 305807458#0 305807458#1 -139108139 -76441437#4 -76441437#3 -76441437#2 -76441202#1 -76442443#8 258787159#2 -76442079#4 -76442079#3 -362066955#1 76442443#6 76442443#7 -258787159#1 76419221#0 76419221#1 76419221#2 305807458#0 305807458#1 305807458#2 -76441531#7 -76441531#6 -76441531#5 -76441531#4 -76441531#3 -76441531#2 -76441531#1 -76441531#0 258787159#6 -76442583#4 -76442583#3 -76442583#2 -76442583#1 -76442583#0 -76441787#10 -76441807#3 -76441807#2 -76443372#8 -76443372#7 -76443372#6 -76441385#1 76445041#6 76445041#7 76445041#8 76441807#1 76441807#2 76441807#3 76441787#10 76442583#0 76442583#1 76442583#2 76442583#3 76442583#4 -258787159#6 76441531#0 76442018#0 76442018#1 -76442583#4 -361431608#4 -361431608#3 -361431608#2 -361431608#1 76442079#4 258787159#3 -76441958#4 -76441958#3 -76441958#2 -76441958#1 -76441958#0 76441787#6 -76441385#3 -76441164#5 76443355#3 -76441787#5 -76441787#4 -76441787#3 -76441787#2 -76441787#1 76443031#0 -76441164#0 76441065#2 76441787#0 76441787#1 76441787#2 76441787#3 76441787#4 76441787#5 76441787#6 76441787#7 76441787#8 76441787#9 76441787#10 76442583#0 76442583#1 76442583#2 76442583#3 76442583#4 -258787159#6 76441531#0 76441531#1 76441531#2 76441531#3 76441531#4 76441531#5 76441531#6 76441531#7 -305807458#2 -305807458#1 -305807458#0 -76419221#2 -76419221#1 -76419221#0 -362066956#4 -362066956#3 -362066956#2 -362066956#1 -362066956#0 -321748518 -76441065#1 -76441065#0 76445041#0 76445041#1 76445041#2 76442648#0 76442648#1 76442648#2 76441787#3 76441787#4 76441787#5 76441787#6 76441787#7 76441787#8 76441787#9 76441787#10 76442583#0 76442583#1 76442583#2 76442583#3 76442583#4 -258787159#6 76441531#0 76441531#1 76441531#2 76441531#3 76441531#4 76441365#1 76441365#2 76441365#3 -76441234#2 152673567#0 152673567#1 -76441531#3 -76441531#2 76441437#0 76441437#1 -76441202#1 -76442443#8 -76442443#7 -76442443#6 -76442443#5 -76442443#4 -76442443#3 -76441787#1 -76441787#0 362066956#0 362066956#1 76443176#5 -76443312#1 -76443312#0 367636030#0 -321748518 -76441065#1 -76441065#0 76445041#0 76445041#1 76442443#0 76442443#1 76442443#2 76441787#2 76441787#3 76441787#4 76441787#5 76441787#6 76441787#7 76441787#8 76441787#9 76441787#10 76442583#0 76442583#1 76442583#2 76442583#3 76442583#4 258787159#7 76441234#0 76441234#1 76441234#2 76441234#3 -76443587 -76441365#2 -76441365#1 76441531#5 76441531#6 76441531#7 -305807458#2 -305807458#1 -305807458#0 -76419221#2"/>
    </vehicle>
    <vehicle id="24" depart="2.40" departPos="random" departSpeed="max">
        <route edges="76442443#2 76442443#3 76442443#4 76442443#5 76442443#6 76442443#7 76442443#8 76441202#1 76441437#2 76441437#3 76441437#4 139108139 -305807458#1 -305807458#0 -76419221#2"/>
    </vehicle>
    <vehicle id="25" depart="2.50" departPos="random" departSpeed="max">
        <route edges="76441787#2 76441787#3 76442079#0 76442079#1 76442079#2 76442079#3 76442079#4 -258787159#2 -258787159#1 -362066956#4"/>
    </vehicle>
    <vehicle id="26" depart="2.60" departPos="random" departSpeed="max">
        <route edges="-76442583#3 -76442583#2 -76442583#1 -76442583#0 -76441787#10 -76441787#9 -76441787#8 -76441787#7 -76441787#6"/>
    </vehicle>
    <vehicle id="27" depart="2.70" departPos="random" departSpeed="max">
        <route edges="-362066956#2 -362066956#1 76441141#1 76442443#4 76442443#5 76442443#6 76442443#7 258787159#2 258787159#3"/>
    </vehicle>
    <vehicle id="28" depart="2.80" departPos="random" departSpeed="max">
        <route edges="76441787#4 76441787#5 76441787#6 76441787#7 76441787#8 76441787#9 76441787#10 76442583#0 76442583#1 76442583#2 76442583#3 76442583#4 -258787159#6"/>
    </vehicle>
    <vehicle id="29" depart="2.90" departPos="random" departSpeed="max">
        <route edges="76443372#5 76441385#2 76441385#3 -76441787#6 -76441787#5 -76441787#4 -76441787#3 -76441787#2 76442443#3 76442443#4 76442443#5 76442443#6 76442443#7 -258787159#1 76419221#0 76419221#1 76419221#2"/>
    </vehicle>
    <vehicle id="30" depart="3.00" departPos="random" departSpeed="max">
        <route edges="-76443372#5 76443355#2 76443355#3 -76441787#5 -76441787#4 -76441787#3 -76441787#2 -76441787#1 -76441787#0 362066956#0 362066956#1 362066956#2 362066956#3 362066956#4"/>
    </vehicle>
    <vehicle id="31" depart="3.10" departPos="random" departSpeed="max">
        <route edges="-76442583#0 -76441787#10 -76441787#9 -76441787#8 -76441787#7 -76441787#6 -76441787#5 -76441787#4 76442079#0 76442079#1 76442079#2 76442079#3 76442079#4 258787159#3"/>
    </vehicle>
    <vehicle id="32" depart="3.20" departPos="random" departSpeed="max">
        <route edges="-76442443#9 76441202#1 -76441437#1 -76441437#0 -76441531#1 76442018#0 76442018#1 -258787159#6 76441531#0 76441531#1 76441531#2 76441531#3 76441531#4 76441531#5 76441531#6 76441531#7 -305807458#2 -305807458#1 -305807458#0 -76419221#2 -76419221#1 -76419221#0 -362066956#4 -362066956#3 -362066956#2 -362066956#1 -362066956#0 -321748518 -76441065#1 -76441065#0 76445041#0 76445041#1 76445041#2 76445041#3 76445041#4 76445041#5 76445041#6 76445041#7 76445041#8 76441807#1 76441807#2 -76441164#8 76441067#3 76441787#9 76441787#10 76442583#0 76442583#1 76442583#2 76442583#3 76442583#4 -258787159#6 76441531#0 76441531#1 76441531#2 76441531#3 76441531#4 76441531#5 76441531#6 76441531#7 -305807458#2 -305807458#1 -305807458#0 -76419221#2 -76419221#1 -76419221#0 -362066956#4 -362066956#3 -362066956#2 -362066956#1 -362066956#0 -321748518 -76441065#1 -76441065#0 76445041#0 76445041#1 76445041#2 76445041#3 76445041#4 76443355#1 76443372#5 76441385#2 -76441164#5 76443355#3 -76441787#5 -76441787#4 -76441787#3 -76441787#2 76442443#3 76442443#4 76442443#5 76442443#6 76442443#7 -258787159#1 76419221#0 76419221#1 76419221#2 305807458#0 305807458#1 305807458#2 -76441531#7 -76441531#6 76442150 76441482#2 -76443587 76441365#3 -76441234#2 -76441234#1 -76441234#0 -258787159#7 -76442583#4 -76442583#3 -76442583#2 -76442583#1 -76442583#0 -76441787#10 -76441787#9 -76441787#8 -76441787#7 -76441787#6 -76441787#5 -76441787#4 -76441787#3 -76442648#2 -76442648#1 -76443372#2 76442443#1 76442443#2 76441787#2 76441787#3 76441787#4 76441787#5 76441787#6 76441787#7 76441787#8 76441787#9 76441787#10 76442583#0 76442583#1 76442583#2 76442583#3 76442583#4 -258787159#6 76441531#0 76441531#1 76441531#2 76441531#3 76441531#4 76441531#5 76441531#6 76441531#7 -305807458#2 -139108139 -76441437#4 -76441437#3 -76441437#2 -76441437#1 -76441437#0 -76441531#1 -76441531#0 258787159#6 -76442583#4 -76442583#3 -76442583#2 -76442583#1 -76442583#0 -76441787#10 -76441807#3 -76441807#2 -76441807#1 -76441807#0 -76443156#3 -76443156#2 -76443156#1 -76443156#0 76443747#0 76443747#1 76443747#2 76443747#3 -76441787#4 -76441787#3 -76441787#2 76442443#3 76442443#4 76442443#5 76442443#6 76442443#7 258787159#2 258787159#3 258787159#4 258787159#5 76441531#0 76441531#1 76441437#0 76441437#1 -76441202#1 -76442443#8 -76442443#7 -76442443#6 -76442443#5 -76442443#4 -76442443#3 -76441787#1 -76441787#0 -321748518 -76441065#1 -76441065#0 76445041#0 76445041#1 76442443#0 76442443#1 76442443#2 76441787#2 76441787#3 76441787#4 76441787#5 76441958#0 76441958#1 76441958#2 362066955#3 -76442471#1 -76442471#0 76441141#5 76441141#6 76442583#1 76442583#2 76442583#3 76442583#4 -76442018#1 76441904 -76441234#0 -258787159#7 -76442583#4 -76442583#3 -76442583#2 -76441669 76443176#0 76443176#1 -76441958#1 -76441958#0 76441787#6 76441787#7 76441787#8 76441787#9 76441787#10 76442583#0 76442583#1 76442583#2 76442583#3 76442583#4 -76442018#1 -76442018#0 -76441531#0 258787159#6 -76442583#4 -76442583#3 -76442583#2 -76442583#1 -76442583#0 -76441787#10 -76441807#3 -76441164#8 -76441067#2 76443372#8 -76441807#1 -76445041#8 76441067#1 76443372#8 76441807#2 76441807#3 76441787#10 76442583#0 76442583#1 76442583#2 -362066955#5 -362066955#4 76442471#2 361431608#3 361431608#4 76442583#4 -258787159#6 76441531#0 76442018#0 76442018#1 -76442583#4 -76442583#3 -76442583#2 -76441669 76441495#1 362066955#5 -76442583#2 -76442583#1 -76442583#0 -76441787#10 -76441807#3 -76441807#2 -76441807#1 -76445041#8 -76445041#7 -76442090#0 76443156#3 76443156#4 76441807#1 76441807#2 76441807#3 76441787#10 76442583#0 76442583#1 76442583#2 76442583#3 76442583#4 -76442018#1 -76442018#0 -76441531#0 258787159#6 -76442583#4 -76442583#3 -76442583#2 -76442583#1 -76442583#0 -76441787#10 -76441787#9 -76441787#8 -76441787#7 -76441787#6 -76441787#5 -76441787#4 -76441787#3 -76441787#2 -76442443#2 -76441164#1 -76441164#0 76441065#2 76441787#0 76441787#1 76441787#2 76441787#3 76441787#4 76441787#5 76441787#6 76441787#7 76441787#8 76441787#9 -76441807#3 -76441807#2 -76443372#8 76441067#2 76441164#8 76441807#3 76441787#10 76442583#0 76442583#1 76442583#2 76442583#3 76442583#4 -258787159#6 -258787159#5 -258787159#4 -258787159#3"/>
    </vehicle>
    <vehicle id="33" depart="3.30" departPos="random" departSpeed="max">
        <route edges="-76442443#8 -76442443#7 -76442443#6 -76442443#5 -76442443#4 -76442443#3 -76441787#1 -76441787#0 -321748518"/>
    </vehicle>
    <vehicle id="34" depart="3.40" departPos="random" departSpeed="max">
        <route edges="-76442150 -76441531#5 -76441531#4 -76441531#3 -76441531#2 -76441531#1 -76441531#0 258787159#6 -76442583#4 -76442583#3 -76442583#2 -76442583#1 -76442583#0 -76441787#10 -76441787#9 -76441787#8 -76441787#7 -76441787#6"/>
    </vehicle>
    <vehicle id="35" depart="3.50" departPos="random" departSpeed="max">
        <route edges="-76441526 362066956#4 76419221#0 76419221#1 76419221#2 305807458#0 305807458#1 -139108139 152627338#0 152627338#1 76441531#7 -305807458#2"/>
    </vehicle>
    <vehicle id="36" depart="3.60" departPos="random" departSpeed="max">
        <route edges="76442443#8 -76441202#0 -76419221#0 258787159#1 -76442443#7 -76442443#6 -76442443#5 -76442443#4 -76442443#3 76441787#2 76441787#3 76441787#4 76441787#5 76441787#6"/>
    </vehicle>
    <vehicle id="37" depart="3.70" departPos="random" departSpeed="max">
        <route edges="76441482#0 -76441365#1 -76441531#4 -76441531#3 -76441531#2 -76441531#1 -76441531#0 258787159#6 -76442583#4 -76442583#3 -76442583#2 -76442583#1 -76442583#0 -76441787#10 -76441807#3 -76441807#2 -76441807#1"/>
    </vehicle>
    <vehicle id="38" depart="3.80" departPos="random" departSpeed="max">
        <route edges="-76441958#1 -76441958#0 -76441787#5 -76441787#4 -76441787#3 -76441787#2 -76441787#1 -76441787#0 362066956#0 362066956#1 362066956#2 362066956#3 362066956#4"/>
    </vehicle>
    <vehicle id="39" depart="3.90" departPos="random" departSpeed="max">
        <route edges="-76442443#10 -76419487 76419221#2"/>
    </vehicle>
    <vehicle id="40" depart="4.00" departPos="random" departSpeed="max">
        <route edges="-362066955#4 -76442471#1 -76442471#0 76441141#5 76441141#6 -76442583#0 -76441787#10 -76441787#9 -76441787#8 -76441787#7 -76441787#6"/>
    </vehicle>
    <vehicle id="42" depart="4.20" departPos="random" departSpeed="max">
        <route edges="-76441365#2 -76441365#1 76441531#5 76441531#6 76441531#7 -305807458#2"/>
    </vehicle>
    <vehicle id="43" depart="4.30" departPos="random" departSpeed="max">
        <route edges="-76442150 -76441531#5 -76441531#4 -76441531#3 -76441531#2 -76441531#1 -76441531#0 258787159#6 -76442583#4 -76442583#3 -76442583#2 -76442583#1 -76442583#0 -76441787#10 -76441807#3 -76441807#2 -76443372#8 -76441067#1 76445041#8 76441807#1"/>
    </vehicle>
    <vehicle id="44" depart="4.40" departPos="random" departSpeed="max">