<?xml version="1.0"?>
<!-- generated on 2017-03-04 00:42:35.559916 by $Id: randomTrips.py 19495 2015-12-02 12:36:28Z behrisch $
  options: -n ottawa.net.xml <doubleminus>r ottawa.50.routes.xml -a ottawa.50.randomTrips.xml <doubleminus>begin 0 <doubleminus>end 5.00 <doubleminus>period 0.1 <doubleminus>min-distance 500 <doubleminus>fringe-factor 1 -L <doubleminus>intermediate 30 -l <doubleminus>trip-attributes=departSpeed="max"  departPos="random" -o ottawa.50.trips.xml <doubleminus>weights-prefix ottawa
-->
<trips>
    <trip id="0" depart="0.00" from="76441202#1" to="-76441807#1" via="-139108139 -76441234#3 -76441065#0 76445041#2 -76445041#5 76441067#2 258787159#0 -362066956#4 -76442079#5 -258787159#1 76443031#1 -76441065#0 -76441904 76441065#0 362066956#3 -76441764 -76443355#2 258787159#6 76441141#2 -76442079#2 -76441385#1 76419221#0 305807458#0 76441787#6 362066956#1 76443156#2 -76442443#3 361431608#2 -76441958#2 76442443#2" departSpeed="max"  departPos="random"/>
    <trip id="1" depart="0.10" from="-76441787#7" to="305807458#2" via="76441202#2 362066956#4 -76441531#2 -305807458#1 362066956#2 -362066956#2 -258787159#6 76441141#0 -76441531#0 76442443#5 76441141#5 -76441787#3 76441385#1 -76441787#6 76441694#1 -362066956#1 -76443747#0 76442079#2 -76445041#0 76443031#2 258787159#3 76441164#2 -305807458#1 305807458#1 76441202#0 76441787#7 76443176#1 -76441067#1 76441065#0 76443176#4" departSpeed="max"  departPos="random"/>
    <trip id="2" depart="0.20" from="-76442443#1" to="76441807#1" via="-76441787#7 -321748518 76442443#5 -76442090#3 -362066956#0 76441787#9 76441531#0 258787159#1 -76441787#7 76443156#1 305807458#2 -76441482#1 -76442481 -76443261 76442648#2 -76445041#3 -76442150 -76445041#8 -76441807#2 258787159#7 258787159#6 76441531#7 -258787159#5 -76442648#0 258787159#4 76419221#1 76441787#9 76442079#0 305807458#2 -76441531#2" departSpeed="max"  departPos="random"/>
    <trip id="3" depart="0.30" from="76441141#3" to="76419221#2" via="76441437#4 305807458#2 -76441787#0 76441531#7 76441065#2 258787159#6 76441437#2 76441787#7 76443355#2 76441531#1 76443747#1 -76445041#5 -76441495#0 -76441202#0 -258787159#3 362066956#0 -361431608#3 -76441787#7 -361431608#4 -76441807#3 -76441437#0 -76441065#1 76445041#4 76441164#2 76441787#0 76442443#4 305807458#1 -76441787#7 76441531#6 -76441787#4" departSpeed="max"  departPos="random"/>
    <trip id="4" depart="0.40" from="-362066956#0" to="-76441787#6" via="76441787#7 76441141#2 76441385#1 258787159#2 -76445041#4 -76441202#1 76442443#10 -76441202#0 258787159#5 -76419221#0 76441787#9 76419221#2 -76441065#0 76445041#3 -362066956#2 -76441164#2 -362066956#3 -76441065#0 -361431608#0 -76441234#2 -367636030#1 -76441365#0 -76441164#4 76441437#1 76441807#1 -76441787#5 76419221#1 -76441164#5 -76442443#3 -258787159#4" departSpeed="max"  departPos="random"/>
    <trip id="5" depart="0.50" from="-258787159#5" to="362066956#4" via="76441531#7 76443312#1 -258787159#6 76441787#10 258787159#6 -305807458#2 -76441164#3 -258787159#2 76441531#2 76441807#2 -76443587 -258787159#0 -76443372#5 76441531#7 258787159#6 76442648#0 -76441787#1 -76441787#0 -258787159#0 -76441958#3 76441694#1 152673567#0 76442648#1 -76442443#6 -76441958#0 300719826 -321748518 76441065#0 76441531#7 -362066955#2" departSpeed="max"  departPos="random"/>
    <trip id="6" depart="0.60" from="-76441202#2" to="-76441065#0" via="76443176#0 76441065#1 -76441385#1 258787159#3 -76441164#3 76443176#2 -76443312#1 76419221#2 -76443156#1 76441495#1 -76441787#7 -76441787#0 258787159#6 -76441164#4 76441694#0 76443156#1 -76442471#1 -76441787#4 -76441787#7 -362066956#2 -76442090#0 258787159#4 76442443#7 76419221#2 -362066956#2 -76441787#1 76441141#4 76441164#3 -76419221#1 76441958#2" departSpeed="max"  departPos="random"/>
    <trip id="7" depart="0.70" from="361431608#3" to="-76441065#0" via="-76441787#7 76441787#7 -76441787#6 -76441202#1 76441787#7 76419221#1 152673567#1 258787159#0 -321748518 76442443#0 258787159#6 258787159#5 -258787159#0 -76441807#3 76441787#7 76441787#8 76441787#1 -76441164#0 -76442471#3 76441164#8 76441531#5 -76441787#5 361431608#2 76441787#7 76441787#6 76443156#2 -76441065#1 -76443312#2 76443031#2 -76443355#0" departSpeed="max"  departPos="random"/>
    <trip id="8" depart="0.80" from="76419221#0" to="-76441065#0" via="76441787#6 -76441787#7 305807458#2 -76443587 258787159#6 76441694#2 -76442018#0 -76443372#7 76441787#10 -76441385#2 -76441164#2 258787159#3 76441495#1 -258787159#6 -258787159#6 367636030#0 76441141#4 76441531#7 76442471#3 -76442018#1 -76441787#3 -76441787#5 -76443261 -76441787#0 76441958#4 76442079#0 258787159#3 76443156#2 -305807458#1 -305807458#2" departSpeed="max"  departPos="random"/>
    <trip id="9" depart="0.90" from="-76441958#3" to="76441807#1" via="-362066956#3 -76442583#0 -76441787#2 76441787#5 76443176#3 76441482#2 76441787#3 -76441787#10 -76441495#0 76441437#0 -76441787#0 258787159#3 -76442471#0 -362066955#4 -76441787#10 -362066956#2 -76443747#2 -76419221#2 76443156#0 76442018#0 76441164#7 76441531#5 362066955#2 362066956#3 76441065#0 -258787159#0 76441787#3 76441694#0 -76441694#2 -76441787#0" departSpeed="max"  departPos="random"/>
    <trip id="10" depart="1.00" from="-258787159#0" to="76441807#1" via="-76442443#8 -76441495#2 305807458#0 362066956#0 -76441787#9 76441958#1 -76442471#2 76441904 -76441694#1 76419221#2 76441365#2 -361431608#1 -152627338#0 76441787#3 76441787#6 -76443587 -76441787#7 76443156#4 76441958#3 -76441065#0 -76441669 -76441787#10 -76441817 76441495#2 76441065#0 -76441787#0 -305807458#1 76441065#0 76443355#0 76445041#0" departSpeed="max"  departPos="random"/>
    <trip id="11" depart="1.10" from="-76441787#9" to="76441065#0" via="76419221#0 76441787#0 -76441787#1 76441531#1 -139108139 76441787#2 76442443#8 76442471#2 76443156#3 76441141#4 -76419221#2 76441164#4 -76441787#10 76441067#0 258787159#0 -76441787#6 76441787#7 76441787#2 -305807458#1 76442443#9 362066956#2 -76445041#8 -76441437#2 -76442443#9 305807458#2 -76419221#2 -76441437#1 -77699442 362066955#4 76441531#2" departSpeed="max"  departPos="random"/>
    <trip id="12" depart="1.20" from="152627338#1" to="-76419221#2" via="76441141#2 -76441787#0 305807458#0 -76443372#3 76441531#5 76441807#1 76442471#2 76441817 -258787159#6 77699442 -76419221#2 -76441437#1 -367636030#1 76441385#1 76441164#8 -76441495#2 -76441787#0 -76441787#5 -362066956#0 76441065#1 -258787159#0 -76442471#0 76442079#1 362066956#2 305807458#0 258787159#7 -305807458#0 -76441065#0 -76441807#1 362066955#2" departSpeed="max"  departPos="random"/>
    <trip id="13" depart="1.30" from="-76419221#1" to="-76441787#6" via="76441065#2 -305807458#0 -76441164#7 -76441495#0 76441482#0 76441787#4 76441787#7 76441141#6 -258787159#3 76419221#2 -321748518 76419221#2 -76441787#5 76441065#2 -76442471#4 76445041#6 76441065#0 -76443747#1 361431608#2 -77699442 -76441787#2 76443312#0 76443587 76441787#7 76442443#1 -321748518 76441807#2 152627338#0 362066956#3 -305807458#2" departSpeed="max"  departPos="random"/>
    <trip id="14" depart="1.40" from="-76442090#3" to="76419221#2" via="-362066956#3 76441787#10 305807458#1 -76442090#3 76419221#2 258787159#4 362066955#0 -76441365#1 -362066956#3 -76441164#1 76441787#0 -76441234#0 76419221#2 -152673567#1 -362066956#3 -362066956#2 76442583#1 -362066956#3 -76441164#4 -258787159#7 -258787159#6 -76441531#1 76441787#3 362066956#4 76443156#2 305807458#2 -305807458#1 -76443382 76443372#6 -258787159#7" departSpeed="max"  departPos="random"/>
    <trip id="15" depart="1.50" from="76441067#0" to="76441065#0" via="-76442079#0 76442246 -76441202#1 -76442443#0 -76441234#3 -76441694#1 76443031#1 76443355#1 -361431608#1 -76442443#1 76441531#7 258787159#3 76441807#2 -76441365#1 -362066956#2 76441531#7 -76442443#7 76441234#0 -258787159#0 76443372#3 76442246 -76441787#7 76419221#2 -305807458#0 -76445041#7 -76442090#2 -76441067#2 76441065#0 76441787#7 76443355#1" departSpeed="max"  departPos="random"/>
    <trip id="16" depart="1.60" from="76441531#0" to="-76419221#2" via="258787159#6 -258787159#2 76442090#3 76441531#2 76443355#1 -76445041#2 76443372#7 -76441065#0 76441958#3 305807458#2 76445041#3 -76442079#3 76445041#7 258787159#6 -258787159#7 -76443372#6 305807458#2 76443355#0 76442443#4 76441787#9 76441531#3 -76441164#1 -76442583#3 -76442443#6 -76441787#5 258787159#6 76443372#7 -258787159#7 -76441787#10 305807458#2" departSpeed="max"  departPos="random"/>
    <trip id="17" depart="1.70" from="-76442583#2" to="258787159#3" via="367636030#0 -76419221#1 76419221#2 76419221#2 -362066955#4 -76441787#0 -362066956#0 -76442471#4 -152627338#0 76419221#2 362066956#0 -76441531#3 76443031#1 -76442079#5 362066956#4 76424480 76441787#10 -258787159#3 76441234#3 76441817 76443747#2 -76442443#10 76443031#0 -76441787#9 76419221#1 76441065#0 76419221#2 -76441958#1 258787159#6 362066955#0" departSpeed="max"  departPos="random"/>
    <trip id="18" depart="1.80" from="76441141#1" to="-362066956#4" via="76441787#10 -258787159#3 258787159#0 362066956#1 361431608#0 -76445041#6 361431608#0 -76442090#0 -362066955#4 -76441164#2 76441787#0 361431608#0 -76441904 -76441437#0 -258787159#0 -362066956#4 76443372#2 258787159#4 76443372#1 258787159#5 76441787#2 76445041#1 -76443312#2 -76445041#1 76441065#1 305807458#2 -76441787#1 76419221#2 76441531#2 -76419221#0" departSpeed="max"  departPos="random"/>
    <trip id="19" depart="1.90" from="362066955#4" to="-321748518" via="-76441807#1 -76443747#1 -76442583#4 76441531#0 76443156#2 -362066956#0 76441495#2 76441787#7 -76445041#8 -76441787#0 -76443372#0 76441531#3 258787159#0 76442648#0 76442443#7 76441817 76442648#1 76441904 -76441787#0 -76441787#7 -76442079#4 76442583#3 -152627338#0 76443587 -76441065#0 -258787159#1 -76441787#7 -76441787#3 -76443747#2 -258787159#0" departSpeed="max"  departPos="random"/>
    <trip id="20" depart="2.00" from="76443176#1" to="-258787159#6" via="-76443747#1 -76442648#0 76442471#4 -76419221#2 -361431608#2 76441787#0 -76441787#3 76442443#4 -258787159#6 -76443312#1 76441787#10 76441787#10 -76442648#0 -76441164#7 258787159#6 76441787#7 -76441065#0 258787159#3 76441787#0 258787159#0 76443372#4 76442471#3 258787159#0 76419221#2 -362066955#3 76419221#2 258787159#7 -258787159#1 -362066956#1 -76441787#0" departSpeed="max"  departPos="random"/>
    <trip id="21" depart="2.10" from="76442583#2" to="-258787159#3" via="76441385#1 -362066956#4 362066956#0 362066956#3 76442079#5 -76441787#6 -76442443#6 -76419221#2 -76443587 -76442443#4 76442443#4 -76441904 -76442150 -76441787#10 -76442443#2 76441531#7 -76441437#0 362066956#4 76441531#4 -76441234#3 -76441807#1 305807458#2 -76441365#2 76445041#1 -362066956#2 -76442090#3 -139108139 -76442443#8 76442583#0 76441065#2" departSpeed="max"  departPos="random"/>
    <trip id="22" depart="2.20" from="-76441234#2" to="258787159#6" via="76419221#2 76445041#1 76441787#7 -362066956#2 76441526 -76441787#2 -76441065#0 -76443156#2 76441164#2 -76441787#1 -76419221#0 76441385#0 -76441958#1 -76441067#3 76442471#3 76441787#0 -76443747#0 -258787159#6 -76443587 76443312#0 -76443312#2 362066956#1 -258787159#3 -76442443#2 -76441787#0 305807458#1 -76441065#0 76445041#6 76443747#1 258787159#4" departSpeed="max"  departPos="random"/>
    <trip id="23" depart="2.30" from="76442079#1" to="76441807#1" via="76441787#7 76441065#0 76442443#10 -305807458#1 -76441787#0 76441141#6 76441531#6 76441164#5 152673567#0 76441531#1 -76441958#0 152673567#1 76419221#2 76442090#2 -76442090#3 76443031#0 76443372#1 76442443#1 -258787159#7 76441065#2 -76443156#1 -76441065#1 -76441065#0 76419221#2 76442443#2 -76441787#4 76443355#0 76441958#2 305807458#1 -152673567#0" departSpeed="max"  departPos="random"/>
    <trip id="24" depart="2.40" from="76442443#10" to="-321748518" via="76443156#4 -76443156#0 76441958#0 76419221#1 76441482#0 76441531#5 76441495#2 76419221#2 76443176#0 76419221#2 76441365#2 76441531#1 76443747#1 -76441694#1 76443312#0 -76419221#2 -76441787#2 -258787159#3 76445041#2 -76441067#0 76443312#3 76441531#5 -76419221#2 76441065#0 76441202#1 -305807458#1 76442018#0 -76443372#5 76441787#10 258787159#6" departSpeed="max"  departPos="random"/>
    <trip id="25" depart="2.50" from="-258787159#7" to="-258787159#3" via="-258787159#4 -76441495#2 76419221#2 -258787159#0 -76441787#1 76419221#2 -76441787#8 -76441531#6 76443372#4 76443372#1 76442018#1 76443031#1 -76441787#1 -76419221#1 76441437#1 76442443#9 76445041#2 76441787#1 76441531#0 76441694#1 76443312#2 -258787159#7 76441787#2 152673567#0 305807458#1 76441764 76419221#2 -76419221#2 258787159#2 76441437#1" departSpeed="max"  departPos="random"/>
    <trip id="26" depart="2.60" from="-76443312#3" to="76441807#1" via="-76441234#1 76442246 76441787#0 76441531#7 -76442079#5 -321748518 76441482#0 -76441202#2 -76442471#1 -76441531#7 -76441787#7 -258787159#2 -76441787#0 -76445041#1 -76443747#1 258787159#7 -76441065#0 -76442079#1 76442443#10 76419221#2 361431608#4 76441531#7 76441787#4 76441958#4 76441787#2 -258787159#5 258787159#0 -76442648#2 -76441385#2 362066956#4" departSpeed="max"  departPos="random"/>
    <trip id="27" depart="2.70" from="76441067#3" to="76441807#1" via="-76442481 258787159#2 76441067#1 76441531#3 -76441787#10 76441065#0 -76443747#3 -321748518 361431608#0 258787159#6 -76441531#7 76441437#0 362066955#5 -76442246 76442471#1 76419221#2 362066955#0 -258787159#6 76441531#7 76442443#0 -362066956#1 76441764 -76441202#2 362066956#3 -76443355#3 -76442481 305807458#2 76441694#1 -76419221#1 76442471#3" departSpeed="max"  departPos="random"/>
    <trip id="28" depart="2.80" from="-76443372#4" to="76441787#6" via="-76442246 76443156#4 -258787159#5 305807458#2 -76441787#9 -76443747#3 -76441495#2 76441164#2 -321748518 -258787159#2 -76443312#3 -76441787#0 361431608#4 76441234#0 -76443156#1 76443355#3 -76442079#3 76441385#1 76441531#7 -76441164#5 362066955#3 76442443#5 76443312#3 76441067#2 -76441065#0 -76441164#7 -76419221#2 76441787#0 76441385#2 361431608#4" departSpeed="max"  departPos="random"/>
    <trip id="29" depart="2.90" from="362066956#2" to="-258787159#3" via="76442079#0 -76441787#0 362066955#3 76442443#0 76419221#2 76443747#1 -76442443#0 305807458#2 -76441787#7 76441787#8 76419221#1 -361431608#4 76442443#3 76441482#0 -76441787#7 76441787#0 76441787#1 76443372#3 -305807458#1 -258787159#3 76441531#2 -76441531#7 76443312#2 -76441787#9 -76442648#2 305807458#2 76441531#2 76419221#1 -76442090#3 -305807458#2" departSpeed="max"  departPos="random"/>
    <trip id="30" depart="3.00" from="76443747#3" to="-258787159#3" via="76441531#0 152627338#0 76443747#3 -258787159#3 76442079#1 -76419221#2 -76441065#0 -305807458#2 -76443355#2 -76442443#5 76441787#6 76441787#1 -76441694#1 76441141#5 76445041#7 362066956#0 -76443355#3 76441202#1 -305807458#0 76441787#7 76441787#8 76441531#6 -76443355#3 362066955#2 76419221#1 -76441437#1 305807458#1 76419221#0 -76441067#3 76441234#2" departSpeed="max"  departPos="random"/>
    <trip id="31" depart="3.10" from="-258787159#5" to="-362066956#4" via="76441787#6 -258787159#7 362066955#4 76441787#1 -76419221#2 -76443156#1 76441495#2 -76445041#4 305807458#1 76441787#10 -362066956#2 152673567#1 -76441787#0 -76441164#7 76442583#0 -362066956#2 -258787159#5 -76441787#0 76441787#6 -76442079#0 76441807#1 76419221#2 76442648#1 -76441694#0 -76445041#4 76441531#4 -76441065#0 258787159#2 -76441437#0 76441067#3" departSpeed="max"  departPos="random"/>
    <trip id="32" depart="3.20" from="-76445041#5" to="-76441787#6" via="305807458#2 76443031#1 -76441365#0 -76419221#1 305807458#0 -76441164#2 76441531#4 -76441234#0 76441164#5 -367636030#1 -76445041#6 361431608#0 -258787159#6 76441531#3 76441787#10 -305807458#2 -76442079#3 -76443312#3 -76441385#2 76441065#0 362066956#4 76441958#1 -76441787#0 -76443312#1 -258787159#6 -76441531#6 -76441482#1 -76441437#2 76419221#1 -76442079#2" departSpeed="max"  departPos="random"/>
    <trip id="33" depart="3.30" from="-76441437#2" to="76441807#1" via="76445041#1 76441065#0 76441202#2 76441065#0 -76443312#0 76442583#2 -76441787#1 76441365#3 76443176#3 76441531#7 76441787#10 -76441164#8 -258787159#3 76441531#0 -76441365#3 -76441065#0 -76442079#1 76419221#1 76441787#9 -76441787#7 362066955#4 76419221#2 76441787#0 76441787#7 -76441065#0 76441787#7 76442648#0 76441531#7 -362066956#2 -305807458#0" departSpeed="max"  departPos="random"/>
    <trip id="34" depart="3.40" from="152673567#1" to="258787159#6" via="-76445041#0 152627338#1 76441787#0 76442090#2 -76419221#0 -76441067#1 362066955#0 -76441531#5 -76441787#4 -76441787#6 -76419221#2 362066955#5 76441787#0 -76445041#2 258787159#2 -76441787#0 76442471#3 76445041#3 -76443355#2 76441531#5 258787159#6 -76441787#0 -76443372#4 -76441787#10 76441787#7 258787159#6 -76442471#2 -362066956#0 76442090#1 76442090#2" departSpeed="max"  departPos="random"/>
    <trip id="35" depart="3.50" from="76445041#8" to="76441065#2" via="76443372#8 76442079#4 -258787159#7 -76441065#0 76441065#1 76441065#0 76445041#3 76442090#0 -76441787#9 76441065#1 -76441904 -76442443#8 -76441787#7 -258787159#4 76441787#9 76419221#2 76441531#7 76443156#0 -76441437#1 258787159#6 76441164#2 -76441787#1 76441531#7 76441531#7 76441787#7 76441958#3 -76442079#0 76441787#7 76445041#0 -258787159#7" departSpeed="max"  departPos="random"/>
    <trip id="36" depart="3.60" from="-76441787#3" to="-76441065#0" via="258787159#4 -76441531#3 -76441164#2 76441531#3 76441787#2 362066956#3 -76441531#6 76442960 362066955#4 76441787#10 76419221#1 76441164#4 258787159#2 -76441065#1 -76441531#4 76443031#2 76442443#4 76441531#2 258787159#5 76445041#3 -76441787#1 76419221#2 -76441787#6 -76442583#1 -76442443#0 76441065#2 76419221#2 76441067#1 76441787#0 76443747#0" departSpeed="max"  departPos="random"/>
    <trip id="37" depart="3.70" from="76441958#4" to="76419221#2" via="300719826 305807458#2 76443312#0 -76445041#5 -76441787#3 362066956#2 -76441787#9 -76441531#5 76441764 -76442471#3 76441531#2 76443587 -76442443#5 -76441164#7 -76441385#0 -76443747#2 76443176#4 -76441958#4 -76441787#2 76441531#7 -76442443#3 -76443747#2 -76441234#2 -76442583#0 -76441385#1 -76441385#1 76441787#2 -76441437#1 -76442018#1 -258787159#7" departSpeed="max"  departPos="random"/>
    <trip id="38" depart="3.80" from="-76441787#6" to="76441065#0" via="362066956#4 -321748518 -76441065#0 -76441904 -76419221#2 -76443261 -76441787#0 -76441065#0 76441787#0 -76441164#8 -76442090#2 76441787#7 -76442443#9 -76419221#2 76442443#0 76442079#2 258787159#6 76443372#8 -76442443#6 76441787#0 -76442648#0 -76441164#6 -152673567#0 -76441495#0 -76441437#2 76441694#0 -258787159#6 -362066955#3 -305807458#0 -361431608#1" departSpeed="max"  departPos="random"/>
    <trip id="39" depart="3.90" from="-305807458#0" to="258787159#6" via="76442443#6 76441787#0 258787159#3 -258787159#6 76441787#1 362066956#3 76443372#2 -76445041#8 76441234#3 76443312#1 362066956#3 -76441065#0 362066955#2 76442471#0 -76442648#1 76441787#7 76441234#1 76445041#8 -76441787#5 -76441787#7 -76419221#2 76443312#2 362066956#4 76419221#1 76443355#1 76443312#2 -76441807#0 76442018#1 76441437#4 76441141#0" departSpeed="max"  departPos="random"/>
    <trip id="40" depart="4.00" from="76419221#0" to="76441065#2" via="76442471#3 76442443#5 76442443#8 76441787#7 76442443#10 -76441694#2 258787159#6 -76419221#2 76419221#2 152627338#1 362066956#2 -76442583#2 -76441904 76442090#0 -76441787#0 -76441164#2 -76419221#2 -76441787#0 76441531#0 76419221#2 76441437#3 -76442481 76441787#2 76419221#1 152627338#1 -76441067#3 -258787159#6 362066955#4 -305807458#1 76441694#2" departSpeed="max"  departPos="random"/>
    <trip id="41" depart="4.10" from="76441065#1" to="-321748518" via="-76441531#1 -76443587 -76441787#3 76441787#7 76441164#6 -76441531#1 -305807458#0 258787159#4 -76441065#0 76445041#4 258787159#7 76441787#7 76441787#0 76441787#7 -76441437#4 76441787#2 362066955#0 -362066956#3 -76441065#1 76441787#1 -76442443#6 -76442090#1 76443176#4 362066955#4 -76441787#0 76441526 76442583#0 76442443#9 76441065#0 76445041#1" departSpeed="max"  departPos="random"/>
    <trip id="42" depart="4.20" from="-152673567#0" to="76441787#6" via="76419221#2 -76445041#3 -76443156#3 -361431608#1 76442079#5 76441164#1 76441787#0 -76442246 76441787#8 258787159#6 76441958#2 -76441958#4 258787159#3 -76443312#1 76442018#1 76441531#4 -76441065#0 -258787159#3 258787159#6 -258787159#7 -258787159#6 76441787#0 362066956#3 -258787159#6 76443312#1 76419221#2 76441065#1 -76442583#0 -76441067#0 -76442471#4" departSpeed="max"  departPos="random"/>
    <trip id="43" depart="4.30" from="76442443#6" to="76441787#6" via="-76441787#7 77699442 -258787159#6 -362066956#4 305807458#2 76443372#2 -76441164#7 76441437#4 258787159#1 76443382 305807458#0 -76419221#1 76443176#1 76441531#1 362066956#0 305807458#2 76419221#2 76442090#3 76441787#0 76441807#2 76441787#7 -362066956#2 -76441531#1 -76441202#1 -76441164#7 76442960 76441495#1 -76441202#2 -76419487 -76442090#3" departSpeed="max"  departPos="random"/>
    <trip id="44" depart="4.40" from="76442443#6" to="258787159#3" via="76441531#2 -76443747#2 76441067#3 -362066955#1 -76443156#3 258787159#5 76419221#1 -258787159#2 -76441787#7 76441787#6 76441365#1 -76442443#0 -361431608#1 -76441531#0 -76443372#5 -77699442 -361431608#0 -258787159#6 -76441065#0 258787159#3 76443747#3 305807458#0 76441437#4 258787159#2 -76442090#1 76441531#2 76441067#0 362066956#4 -76419487 -76419221#1" departSpeed="max"  departPos="random"/>
    <trip id="45" depart="4.50" from="76441065#1" to="258787159#3" via="76441531#7 76441164#2 76441531#2 -258787159#3 76441164#2 76443312#0 -258787159#6 76441234#3 305807458#2 -76441385#2 76443176#0 300719826 76442443#10 -76441234#0 76441787#5 -362066955#4 76442583#2 76441164#6 -76441669 258787159#5 -76443312#2 76441787#8 -367636030#1 -76442246 -76441531#6 258787159#6 76441787#7 362066955#3 76441531#7 305807458#1" departSpeed="max"  departPos="random"/>
    <trip id="46" depart="4.60" from="-76443372#6" to="-76441807#1" via="-258787159#1 76441234#0 -258787159#4 76441787#0 -258787159#0 258787159#0 -362066956#3 -76441531#0 -305807458#1 76441065#0 -76419221#1 76443312#1 76443031#1 -76441787#7 -76441437#2 -76441787#2 -76442443#8 -76441958#5 76419221#1 -305807458#2 76442090#3 -76441787#7 76443312#1 -76441787#0 76442150 -76441787#0 -76441065#0 152673567#0 -76441065#0 -76441787#3" departSpeed="max"  departPos="random"/>
    <trip id="47" depart="4.70" from="-76443372#8" to="-76441787#6" via="-76441787#0 76442443#4 362066955#2 76441958#0 -76441365#0 76441958#5 -76445041#7 76441787#0 76442018#1 76441141#2 76441787#4 -76442583#2 76441065#0 76419221#0 -76443372#3 -76441787#7 76441787#10 76441065#0 258787159#3 -362066955#5 76442018#1 -76441065#1 362066956#2 76441202#0 76442648#0 -76441958#3 76442648#0 76443372#0 362066956#0 76443747#2" departSpeed="max"  departPos="random"/>
    <trip id="48" depart="4.80" from="76424480" to="-76441807#1" via="76419221#1 76443372#3 -361431608#3 -76442443#4 76441787#0 76441164#5 76443355#1 -76441787#2 -76441365#1 76441787#2 -258787159#2 76442079#5 -76441531#2 -76443372#0 76441065#1 305807458#2 76441531#7 -76441787#6 -76443355#3 -76441787#8 258787159#6 76442471#4 76442583#4 -76441385#0 -361431608#2 -76441531#0 76443176#3 76441385#3 -76441482#0 -76441067#3" departSpeed="max"  departPos="random"/>
    <trip id="49" depart="4.90" from="-139108139" to="-76441065#0" via="76441531#7 -76441764 305807458#1 76442960 -258787159#6 -76441495#0 361431608#0 76441065#0 76441365#1 -258787159#6 -76441065#0 76441787#5 -362066955#2 305807458#2 305807458#2 -76442018#1 -76441787#7 76445041#3 76441787#8 76441787#3 76441164#2 -76442583#4 -76441164#6 76441787#0 -76442090#2 -76441787#1 -76445041#2 -258787159#4 76442443#7 -76441787#7" departSpeed="max"  departPos="random"/>
    <trip id="50" depart="5.00" from="76441065#0" to="-76441807#1" via="-76441526 -361431608#3 -76441385#3 76443747#0 362066956#1 305807458#2 -76442443#0 76441787#7 -258787159#2 76442246 76442471#2 76419221#2 -76441531#2 76443747#0 362066955#0 -76441065#0 -76441495#2 76441065#0 -76441164#2 76441164#0 -76419221#2 367636030#0 76441164#3 76441531#2 -76441787#3 -76441787#10 -76441531#3 -76442583#4 76441787#2 76441164#5" departSpeed="max"  departPos="random"/>
</trips>
