<?xml version="1.0" encoding="UTF-8"?>

<!-- generated on Thu Mar 30 18:32:25 2017 by SUMO polyconvert Version 0.25.0D
<?xml version="1.0" encoding="UTF-8"?>

<configuration xmlns:xsi="http://www.w3.org/2001/XMLSchema-instance" xsi:noNamespaceSchemaLocation="http://sumo.dlr.de/xsd/polyconvertConfiguration.xsd">

    <input>
        <net-file value="ottawa.net.xml"/>
        <osm-files value="ottawa.clean.osm"/>
        <type-file value="typemap.xml"/>
    </input>

    <output>
        <output-file value="ottawa.poly.xml"/>
    </output>

    <processing>
        <ignore-errors value="true"/>
        <poi-layer-offset value="5"/>
    </processing>

</configuration>
-->

<additional xmlns:xsi="http://www.w3.org/2001/XMLSchema-instance" xsi:noNamespaceSchemaLocation="http://sumo.dlr.de/xsd/additional_file.xsd">
    <location netOffset="-446354.24,-5029721.50" convBoundary="0.00,0.00,877.68,1912.84" origBoundary="-75.685699,45.419008,-75.674581,45.436206" projParameter="+proj=utm +zone=18 +ellps=WGS84 +datum=WGS84 +units=m +no_defs"/>

</additional>
