<?xml version="1.0"?>
<!-- generated on 2017-03-16 17:21:59.723404 by $Id: randomTrips.py 19495 2015-12-02 12:36:28Z behrisch $
  options: -n ottawa.net.xml <doubleminus>begin 0 <doubleminus>end 15.00 <doubleminus>period 0.1 <doubleminus>min-distance 0 <doubleminus>fringe-factor 1 <doubleminus>intermediate 1 <doubleminus>trip-attributes=departSpeed="max"  departPos="random"  type="fastCar" -a ottawa.150.randomTrips.xml -o ottawa.150.trips.xml <doubleminus>weights-prefix ottawa
-->
<trips>
    <trip id="0" depart="0.00" from="-76442583#1" to="76441787#9" via="76443156#1" departSpeed="max"  departPos="random"  type="fastCar"/>
    <trip id="1" depart="0.10" from="76441787#4" to="76441807#1" via="--69740" departSpeed="max"  departPos="random"  type="fastCar"/>
    <trip id="2" depart="0.20" from="76443176#1" to="76441065#2" via="258787159#4" departSpeed="max"  departPos="random"  type="fastCar"/>
    <trip id="3" depart="0.30" from="361431608#3" to="-76419221#2" via="-76443372#5" departSpeed="max"  departPos="random"  type="fastCar"/>
    <trip id="4" depart="0.40" from="76442583#4" to="-76443156#0" via="76443355#3" departSpeed="max"  departPos="random"  type="fastCar"/>
    <trip id="5" depart="0.50" from="76442079#4" to="76441807#1" via="76443212" departSpeed="max"  departPos="random"  type="fastCar"/>
    <trip id="6" depart="0.60" from="-76442090#3" to="76441065#2" via="76441958#1" departSpeed="max"  departPos="random"  type="fastCar"/>
    <trip id="7" depart="0.70" from="362066956#0" to="76441787#9" via="76441807#1" departSpeed="max"  departPos="random"  type="fastCar"/>
    <trip id="8" depart="0.80" from="-76442090#0" to="-76441807#1" via="-76442471#4" departSpeed="max"  departPos="random"  type="fastCar"/>
    <trip id="9" depart="0.90" from="362066955#4" to="-76441807#1" via="76445041#1" departSpeed="max"  departPos="random"  type="fastCar"/>
    <trip id="10" depart="1.00" from="76441202#1" to="-76441787#9" via="362066955#0" departSpeed="max"  departPos="random"  type="fastCar"/>
    <trip id="11" depart="1.10" from="-76441437#1" to="76441531#6" via="76443176#1" departSpeed="max"  departPos="random"  type="fastCar"/>
    <trip id="12" depart="1.20" from="-76443372#1" to="76441065#0" via="76442471#1" departSpeed="max"  departPos="random"  type="fastCar"/>
    <trip id="13" depart="1.30" from="-76443372#8" to="-76441787#9" via="-76441531#1" departSpeed="max"  departPos="random"  type="fastCar"/>
    <trip id="14" depart="1.40" from="-76441694#1" to="-258787159#2" via="76441787#1" departSpeed="max"  departPos="random"  type="fastCar"/>
    <trip id="15" depart="1.50" from="-76441202#1" to="-76419221#2" via="-362066955#5" departSpeed="max"  departPos="random"  type="fastCar"/>
    <trip id="16" depart="1.60" from="76443747#0" to="76441807#1" via="-76445041#7" departSpeed="max"  departPos="random"  type="fastCar"/>
    <trip id="17" depart="1.70" from="-76441807#3" to="-258787159#2" via="76441437#0" departSpeed="max"  departPos="random"  type="fastCar"/>
    <trip id="18" depart="1.80" from="-76443372#1" to="-76419221#2" via="76441385#0" departSpeed="max"  departPos="random"  type="fastCar"/>
    <trip id="19" depart="1.90" from="76441164#5" to="-321748518" via="-76441067#2" departSpeed="max"  departPos="random"  type="fastCar"/>
    <trip id="20" depart="2.00" from="76442079#5" to="76441065#0" via="76441067#1" departSpeed="max"  departPos="random"  type="fastCar"/>
    <trip id="21" depart="2.10" from="-76445041#6" to="76441065#0" via="76441385#0" departSpeed="max"  departPos="random"  type="fastCar"/>
    <trip id="22" depart="2.20" from="76441787#4" to="76443156#0" via="-76441807#0" departSpeed="max"  departPos="random"  type="fastCar"/>
    <trip id="23" depart="2.30" from="76441958#0" to="76441065#0" via="76441065#1" departSpeed="max"  departPos="random"  type="fastCar"/>
    <trip id="24" depart="2.40" from="76441385#2" to="76441807#1" via="76441787#7" departSpeed="max"  departPos="random"  type="fastCar"/>
    <trip id="25" depart="2.50" from="-76441807#3" to="-76441807#1" via="76441787#0" departSpeed="max"  departPos="random"  type="fastCar"/>
    <trip id="26" depart="2.60" from="-76441531#2" to="76441065#2" via="-76441817" departSpeed="max"  departPos="random"  type="fastCar"/>
    <trip id="27" depart="2.70" from="-76441694#1" to="-76419221#2" via="-76445041#2" departSpeed="max"  departPos="random"  type="fastCar"/>
    <trip id="28" depart="2.80" from="76443212" to="-321748518" via="-76441787#7" departSpeed="max"  departPos="random"  type="fastCar"/>
    <trip id="29" depart="2.90" from="362066956#3" to="-321748518" via="-76441669" departSpeed="max"  departPos="random"  type="fastCar"/>
    <trip id="30" depart="3.00" from="-362066956#2" to="76419221#2" via="-76441385#2" departSpeed="max"  departPos="random"  type="fastCar"/>
    <trip id="31" depart="3.10" from="76445041#0" to="258787159#4" via="-258787159#3" departSpeed="max"  departPos="random"  type="fastCar"/>
    <trip id="32" depart="3.20" from="76443372#8" to="-76441065#0" via="-76441164#5" departSpeed="max"  departPos="random"  type="fastCar"/>
    <trip id="33" depart="3.30" from="76443382" to="258787159#4" via="-76441787#6" departSpeed="max"  departPos="random"  type="fastCar"/>
    <trip id="34" depart="3.40" from="76419221#1" to="76441065#0" via="76445041#6" departSpeed="max"  departPos="random"  type="fastCar"/>
    <trip id="35" depart="3.50" from="-76441787#5" to="-321748518" via="-76441164#5" departSpeed="max"  departPos="random"  type="fastCar"/>
    <trip id="36" depart="3.60" from="-76441164#0" to="76441807#1" via="76441164#4" departSpeed="max"  departPos="random"  type="fastCar"/>
    <trip id="37" depart="3.70" from="-76442246" to="76441065#2" via="-76442648#2" departSpeed="max"  departPos="random"  type="fastCar"/>
    <trip id="38" depart="3.80" from="-76441787#0" to="76419221#2" via="362066955#2" departSpeed="max"  departPos="random"  type="fastCar"/>
    <trip id="39" depart="3.90" from="-76441807#1" to="-76443156#0" via="-76441067#3" departSpeed="max"  departPos="random"  type="fastCar"/>
    <trip id="40" depart="4.00" from="76442471#4" to="76441787#9" via="76441437#0" departSpeed="max"  departPos="random"  type="fastCar"/>
    <trip id="41" depart="4.10" from="-76441531#5" to="258787159#4" via="76443031#2" departSpeed="max"  departPos="random"  type="fastCar"/>
    <trip id="42" depart="4.20" from="76442090#0" to="-76419221#2" via="-76445041#1" departSpeed="max"  departPos="random"  type="fastCar"/>
    <trip id="43" depart="4.30" from="-76441164#8" to="-76443156#0" via="-76442090#1" departSpeed="max"  departPos="random"  type="fastCar"/>
    <trip id="44" depart="4.40" from="76443176#3" to="76441531#6" via="-76445041#7" departSpeed="max"  departPos="random"  type="fastCar"/>
    <trip id="45" depart="4.50" from="-76441164#6" to="-76441807#1" via="-76441164#3" departSpeed="max"  departPos="random"  type="fastCar"/>
    <trip id="46" depart="4.60" from="-76441958#0" to="76441065#2" via="-361431608#3" departSpeed="max"  departPos="random"  type="fastCar"/>
    <trip id="47" depart="4.70" from="76445041#5" to="76441531#6" via="76441141#6" departSpeed="max"  departPos="random"  type="fastCar"/>
    <trip id="48" depart="4.80" from="-362066955#2" to="76441065#0" via="76443176#3" departSpeed="max"  departPos="random"  type="fastCar"/>
    <trip id="49" depart="4.90" from="-76443355#3" to="76441065#0" via="-362066955#3" departSpeed="max"  departPos="random"  type="fastCar"/>
    <trip id="50" depart="5.00" from="76441817" to="76441807#1" via="76441787#10" departSpeed="max"  departPos="random"  type="fastCar"/>
    <trip id="51" depart="5.10" from="76443355#2" to="76441065#2" via="76441385#3" departSpeed="max"  departPos="random"  type="fastCar"/>
    <trip id="52" depart="5.20" from="305807458#0" to="76441065#2" via="-76442079#0" departSpeed="max"  departPos="random"  type="fastCar"/>
    <trip id="53" depart="5.30" from="76441531#1" to="-76441531#6" via="76442079#5" departSpeed="max"  departPos="random"  type="fastCar"/>
    <trip id="54" depart="5.40" from="76443372#4" to="-258787159#2" via="76442090#0" departSpeed="max"  departPos="random"  type="fastCar"/>
    <trip id="55" depart="5.50" from="76441817" to="76441065#0" via="-321748518" departSpeed="max"  departPos="random"  type="fastCar"/>
    <trip id="56" depart="5.60" from="362066955#0" to="76441065#0" via="-76441495#0" departSpeed="max"  departPos="random"  type="fastCar"/>
    <trip id="57" depart="5.70" from="-76443747#0" to="-76419221#2" via="-76443355#0" departSpeed="max"  departPos="random"  type="fastCar"/>
    <trip id="58" depart="5.80" from="-76442090#1" to="76441807#1" via="362066956#2" departSpeed="max"  departPos="random"  type="fastCar"/>
    <trip id="59" depart="5.90" from="258787159#3" to="76443156#0" via="-76441164#5" departSpeed="max"  departPos="random"  type="fastCar"/>
    <trip id="60" depart="6.00" from="-76441437#2" to="-258787159#2" via="76443372#5" departSpeed="max"  departPos="random"  type="fastCar"/>
    <trip id="61" depart="6.10" from="76441437#4" to="76441531#6" via="76441787#10" departSpeed="max"  departPos="random"  type="fastCar"/>
    <trip id="62" depart="6.20" from="-362066955#3" to="76441787#9" via="76442471#3" departSpeed="max"  departPos="random"  type="fastCar"/>
    <trip id="63" depart="6.30" from="-76442648#2" to="-76419221#2" via="76443747#2" departSpeed="max"  departPos="random"  type="fastCar"/>
    <trip id="64" depart="6.40" from="-258787159#1" to="-76441807#1" via="76445041#5" departSpeed="max"  departPos="random"  type="fastCar"/>
    <trip id="65" depart="6.50" from="139108139" to="-76443156#0" via="-76441164#2" departSpeed="max"  departPos="random"  type="fastCar"/>
    <trip id="66" depart="6.60" from="-305807458#1" to="76441065#2" via="-76442481" departSpeed="max"  departPos="random"  type="fastCar"/>
    <trip id="67" depart="6.70" from="76443176#2" to="-321748518" via="76443747#1" departSpeed="max"  departPos="random"  type="fastCar"/>
    <trip id="68" depart="6.80" from="-76445041#2" to="76441065#2" via="76441807#2" departSpeed="max"  departPos="random"  type="fastCar"/>
    <trip id="69" depart="6.90" from="76442471#4" to="76441807#1" via="-76441437#4" departSpeed="max"  departPos="random"  type="fastCar"/>
    <trip id="70" depart="7.00" from="-76441958#0" to="-258787159#2" via="-76441787#5" departSpeed="max"  departPos="random"  type="fastCar"/>
    <trip id="71" depart="7.10" from="76443372#0" to="-76441807#1" via="-76441385#2" departSpeed="max"  departPos="random"  type="fastCar"/>
    <trip id="72" depart="7.20" from="-76443372#0" to="76419221#2" via="-76443372#6" departSpeed="max"  departPos="random"  type="fastCar"/>
    <trip id="73" depart="7.30" from="76443031#2" to="76441065#2" via="76441694#0" departSpeed="max"  departPos="random"  type="fastCar"/>
    <trip id="74" depart="7.40" from="76445041#8" to="-76443156#0" via="-152627338#0" departSpeed="max"  departPos="random"  type="fastCar"/>
    <trip id="75" depart="7.50" from="-76443372#7" to="-76441807#1" via="76441164#0" departSpeed="max"  departPos="random"  type="fastCar"/>
    <trip id="76" depart="7.60" from="361431608#4" to="-76441065#0" via="76443176#1" departSpeed="max"  departPos="random"  type="fastCar"/>
    <trip id="77" depart="7.70" from="-76441958#5" to="-76441807#1" via="76441694#0" departSpeed="max"  departPos="random"  type="fastCar"/>
    <trip id="78" depart="7.80" from="76443156#0" to="-258787159#2" via="-362066956#3" departSpeed="max"  departPos="random"  type="fastCar"/>
    <trip id="79" depart="7.90" from="-76441437#4" to="76443156#0" via="-321748518" departSpeed="max"  departPos="random"  type="fastCar"/>
    <trip id="80" depart="8.00" from="-76442079#4" to="258787159#4" via="-76441787#5" departSpeed="max"  departPos="random"  type="fastCar"/>
    <trip id="81" depart="8.10" from="76441067#2" to="-76443156#0" via="76441141#6" departSpeed="max"  departPos="random"  type="fastCar"/>
    <trip id="82" depart="8.20" from="-361431608#4" to="-321748518" via="76442079#5" departSpeed="max"  departPos="random"  type="fastCar"/>
    <trip id="83" depart="8.30" from="76441531#2" to="-76419221#2" via="-76441669" departSpeed="max"  departPos="random"  type="fastCar"/>
    <trip id="84" depart="8.40" from="76442471#3" to="76443156#0" via="76442090#0" departSpeed="max"  departPos="random"  type="fastCar"/>
    <trip id="85" depart="8.50" from="-76441495#0" to="258787159#4" via="-76442481" departSpeed="max"  departPos="random"  type="fastCar"/>
    <trip id="86" depart="8.60" from="76442471#2" to="258787159#4" via="-362066955#0" departSpeed="max"  departPos="random"  type="fastCar"/>
    <trip id="87" depart="8.70" from="-76441067#3" to="76441065#2" via="-76442471#2" departSpeed="max"  departPos="random"  type="fastCar"/>
    <trip id="88" depart="8.80" from="-76441067#3" to="76441065#0" via="-76443372#4" departSpeed="max"  departPos="random"  type="fastCar"/>
    <trip id="89" depart="8.90" from="362066955#5" to="-76441065#0" via="76441164#2" departSpeed="max"  departPos="random"  type="fastCar"/>
    <trip id="90" depart="9.00" from="-76442079#2" to="-76443156#0" via="-76441067#2" departSpeed="max"  departPos="random"  type="fastCar"/>
    <trip id="91" depart="9.10" from="76442583#3" to="76441531#6" via="76443372#7" departSpeed="max"  departPos="random"  type="fastCar"/>
    <trip id="92" depart="9.20" from="-362066955#3" to="258787159#4" via="-76441669" departSpeed="max"  departPos="random"  type="fastCar"/>
    <trip id="93" depart="9.30" from="-76443747#3" to="76441065#2" via="76441141#4" departSpeed="max"  departPos="random"  type="fastCar"/>
    <trip id="94" depart="9.40" from="--69740" to="-321748518" via="-76441202#1" departSpeed="max"  departPos="random"  type="fastCar"/>
    <trip id="95" depart="9.50" from="-361431608#2" to="76419221#2" via="258787159#0" departSpeed="max"  departPos="random"  type="fastCar"/>
    <trip id="96" depart="9.60" from="76442079#2" to="258787159#4" via="362066955#5" departSpeed="max"  departPos="random"  type="fastCar"/>
    <trip id="97" depart="9.70" from="-76441958#3" to="76441807#1" via="--69738" departSpeed="max"  departPos="random"  type="fastCar"/>
    <trip id="98" depart="9.80" from="76443747#3" to="76443156#0" via="-76443156#0" departSpeed="max"  departPos="random"  type="fastCar"/>
    <trip id="99" depart="9.90" from="76445041#6" to="-76441807#1" via="76442090#2" departSpeed="max"  departPos="random"  type="fastCar"/>
    <trip id="100" depart="10.00" from="76443747#3" to="76441531#6" via="-69740" departSpeed="max"  departPos="random"  type="fastCar"/>
    <trip id="101" depart="10.10" from="76441202#2" to="-76443156#0" via="-76441067#2" departSpeed="max"  departPos="random"  type="fastCar"/>
    <trip id="102" depart="10.20" from="-76441164#4" to="76441065#0" via="76419221#2" departSpeed="max"  departPos="random"  type="fastCar"/>
    <trip id="103" depart="10.30" from="-76441164#3" to="76441065#0" via="-361431608#2" departSpeed="max"  departPos="random"  type="fastCar"/>
    <trip id="104" depart="10.40" from="76441385#1" to="-76441065#0" via="76442648#0" departSpeed="max"  departPos="random"  type="fastCar"/>
    <trip id="105" depart="10.50" from="76441437#2" to="-76441531#6" via="76441495#2" departSpeed="max"  departPos="random"  type="fastCar"/>
    <trip id="106" depart="10.60" from="76443355#1" to="-76441065#0" via="-76441202#1" departSpeed="max"  departPos="random"  type="fastCar"/>
    <trip id="107" depart="10.70" from="-76445041#2" to="76419221#2" via="-76445041#4" departSpeed="max"  departPos="random"  type="fastCar"/>
    <trip id="108" depart="10.80" from="-76441531#1" to="76441065#0" via="76443355#3" departSpeed="max"  departPos="random"  type="fastCar"/>
    <trip id="109" depart="10.90" from="-76441531#1" to="76441787#9" via="76442648#2" departSpeed="max"  departPos="random"  type="fastCar"/>
    <trip id="110" depart="11.00" from="76441531#3" to="258787159#4" via="362066955#0" departSpeed="max"  departPos="random"  type="fastCar"/>
    <trip id="111" depart="11.10" from="-76441764" to="-321748518" via="-76443156#3" departSpeed="max"  departPos="random"  type="fastCar"/>
    <trip id="112" depart="11.20" from="-76441067#0" to="-76419221#2" via="76441787#5" departSpeed="max"  departPos="random"  type="fastCar"/>
    <trip id="113" depart="11.30" from="-76441764" to="76441531#6" via="76441164#5" departSpeed="max"  departPos="random"  type="fastCar"/>
    <trip id="114" depart="11.40" from="362066955#5" to="-76441531#6" via="76441526" departSpeed="max"  departPos="random"  type="fastCar"/>
    <trip id="115" depart="11.50" from="-76443372#2" to="-76419221#2" via="-76442481" departSpeed="max"  departPos="random"  type="fastCar"/>
    <trip id="116" depart="11.60" from="-76443355#1" to="-76441531#6" via="76445041#8" departSpeed="max"  departPos="random"  type="fastCar"/>
    <trip id="117" depart="11.70" from="-76442583#3" to="76441065#0" via="-76441164#5" departSpeed="max"  departPos="random"  type="fastCar"/>
    <trip id="118" depart="11.80" from="-76441787#7" to="76441787#9" via="76443372#2" departSpeed="max"  departPos="random"  type="fastCar"/>
    <trip id="119" depart="11.90" from="361431608#4" to="-321748518" via="-76441164#2" departSpeed="max"  departPos="random"  type="fastCar"/>
    <trip id="120" depart="12.00" from="-76441958#4" to="-76441531#6" via="152627338#1" departSpeed="max"  departPos="random"  type="fastCar"/>
    <trip id="121" depart="12.10" from="76441531#4" to="76441787#9" via="76443156#4" departSpeed="max"  departPos="random"  type="fastCar"/>
    <trip id="122" depart="12.20" from="76441164#7" to="-76419221#2" via="-76445041#4" departSpeed="max"  departPos="random"  type="fastCar"/>
    <trip id="123" depart="12.30" from="-258787159#1" to="-321748518" via="76441531#4" departSpeed="max"  departPos="random"  type="fastCar"/>
    <trip id="124" depart="12.40" from="-76443372#5" to="-258787159#2" via="76443156#2" departSpeed="max"  departPos="random"  type="fastCar"/>
    <trip id="125" depart="12.50" from="76445041#1" to="76441065#2" via="-76441164#4" departSpeed="max"  departPos="random"  type="fastCar"/>
    <trip id="126" depart="12.60" from="-76443355#1" to="76443156#0" via="-76441437#4" departSpeed="max"  departPos="random"  type="fastCar"/>
    <trip id="127" depart="12.70" from="-76443372#1" to="-321748518" via="258787159#2" departSpeed="max"  departPos="random"  type="fastCar"/>
    <trip id="128" depart="12.80" from="76441787#0" to="-76443156#0" via="-76441065#1" departSpeed="max"  departPos="random"  type="fastCar"/>
    <trip id="129" depart="12.90" from="139108139" to="76441065#2" via="-258787159#3" departSpeed="max"  departPos="random"  type="fastCar"/>
    <trip id="130" depart="13.00" from="76441764" to="-76441787#9" via="-76442481" departSpeed="max"  departPos="random"  type="fastCar"/>
    <trip id="131" depart="13.10" from="-362066956#4" to="76441787#9" via="76442471#1" departSpeed="max"  departPos="random"  type="fastCar"/>
    <trip id="132" depart="13.20" from="76441437#1" to="-321748518" via="-76441787#9" departSpeed="max"  departPos="random"  type="fastCar"/>
    <trip id="133" depart="13.30" from="76441787#3" to="-258787159#2" via="76441202#1" departSpeed="max"  departPos="random"  type="fastCar"/>
    <trip id="134" depart="13.40" from="-76442583#1" to="-321748518" via="76441787#10" departSpeed="max"  departPos="random"  type="fastCar"/>
    <trip id="135" depart="13.50" from="76441385#1" to="76443156#0" via="-69740" departSpeed="max"  departPos="random"  type="fastCar"/>
    <trip id="136" depart="13.60" from="-76441526" to="-76441807#1" via="76442090#0" departSpeed="max"  departPos="random"  type="fastCar"/>
    <trip id="137" depart="13.70" from="76441164#2" to="76441531#6" via="361431608#1" departSpeed="max"  departPos="random"  type="fastCar"/>
    <trip id="138" depart="13.80" from="-76441437#4" to="76419221#2" via="-76445041#1" departSpeed="max"  departPos="random"  type="fastCar"/>
    <trip id="139" depart="13.90" from="76442471#2" to="76443156#0" via="76442079#1" departSpeed="max"  departPos="random"  type="fastCar"/>
    <trip id="140" depart="14.00" from="-69738" to="-76441807#1" via="-76441164#2" departSpeed="max"  departPos="random"  type="fastCar"/>
    <trip id="141" depart="14.10" from="76441202#0" to="76443156#0" via="76441202#2" departSpeed="max"  departPos="random"  type="fastCar"/>
    <trip id="142" depart="14.20" from="76443212" to="-321748518" via="-76445041#3" departSpeed="max"  departPos="random"  type="fastCar"/>
    <trip id="143" depart="14.30" from="76441531#1" to="-76441807#1" via="76443372#7" departSpeed="max"  departPos="random"  type="fastCar"/>
    <trip id="144" depart="14.40" from="362066955#4" to="-258787159#2" via="-76441958#5" departSpeed="max"  departPos="random"  type="fastCar"/>
    <trip id="145" depart="14.50" from="-305807458#0" to="76443156#0" via="-76441437#3" departSpeed="max"  departPos="random"  type="fastCar"/>
    <trip id="146" depart="14.60" from="76441787#0" to="76441807#1" via="76441531#1" departSpeed="max"  departPos="random"  type="fastCar"/>
    <trip id="147" depart="14.70" from="-76441067#1" to="76441065#2" via="258787159#3" departSpeed="max"  departPos="random"  type="fastCar"/>
    <trip id="148" depart="14.80" from="362066955#3" to="76441531#6" via="76441787#0" departSpeed="max"  departPos="random"  type="fastCar"/>
    <trip id="149" depart="14.90" from="-76442583#4" to="76441065#0" via="-69740" departSpeed="max"  departPos="random"  type="fastCar"/>
    <trip id="150" depart="15.00" from="76442079#2" to="76441531#6" via="76442471#1" departSpeed="max"  departPos="random"  type="fastCar"/>
</trips>
