<?xml version="1.0"?>
<!-- generated on 2017-03-14 21:24:45.668964 by $Id: randomTrips.py 19495 2015-12-02 12:36:28Z behrisch $
  options: -n ottawa.net.xml <doubleminus>begin 0 <doubleminus>end 5.00 <doubleminus>period 0.1 <doubleminus>min-distance 0 <doubleminus>fringe-factor 1 <doubleminus>intermediate 1 <doubleminus>trip-attributes=departSpeed="max"  departPos="random"  type="fastCar" -a ottawa.50.randomTrips.xml -o ottawa.50.trips.xml <doubleminus>weights-prefix ottawa
-->
<trips>
    <trip id="0" depart="0.00" from="-305807458#0" to="76441807#1" via="76442471#2" departSpeed="max"  departPos="random"  type="fastCar"/>
    <trip id="1" depart="0.10" from="76441787#3" to="-76441807#1" via="76441141#3" departSpeed="max"  departPos="random"  type="fastCar"/>
    <trip id="2" depart="0.20" from="-76442246" to="76441787#9" via="258787159#3" departSpeed="max"  departPos="random"  type="fastCar"/>
    <trip id="3" depart="0.30" from="76443176#4" to="-76443156#0" via="-76441787#5" departSpeed="max"  departPos="random"  type="fastCar"/>
    <trip id="4" depart="0.40" from="-76441437#2" to="76441807#1" via="76441067#3" departSpeed="max"  departPos="random"  type="fastCar"/>
    <trip id="5" depart="0.50" from="-76441807#1" to="258787159#4" via="-76443156#0" departSpeed="max"  departPos="random"  type="fastCar"/>
    <trip id="6" depart="0.60" from="76441437#4" to="76441807#1" via="76442079#1" departSpeed="max"  departPos="random"  type="fastCar"/>
    <trip id="7" depart="0.70" from="76442090#2" to="-258787159#2" via="-362066956#3" departSpeed="max"  departPos="random"  type="fastCar"/>
    <trip id="8" depart="0.80" from="-76441526" to="76441531#6" via="-76441958#5" departSpeed="max"  departPos="random"  type="fastCar"/>
    <trip id="9" depart="0.90" from="76441067#3" to="258787159#4" via="76441958#5" departSpeed="max"  departPos="random"  type="fastCar"/>
    <trip id="10" depart="1.00" from="76441495#1" to="-76441807#1" via="-76441495#0" departSpeed="max"  departPos="random"  type="fastCar"/>
    <trip id="11" depart="1.10" from="76443176#2" to="-258787159#2" via="76443176#0" departSpeed="max"  departPos="random"  type="fastCar"/>
    <trip id="12" depart="1.20" from="76443372#3" to="-321748518" via="-76441437#0" departSpeed="max"  departPos="random"  type="fastCar"/>
    <trip id="13" depart="1.30" from="-76443355#0" to="76443156#0" via="76441164#8" departSpeed="max"  departPos="random"  type="fastCar"/>
    <trip id="14" depart="1.40" from="362066955#4" to="-76441787#9" via="76442090#1" departSpeed="max"  departPos="random"  type="fastCar"/>
    <trip id="15" depart="1.50" from="76443176#3" to="-258787159#2" via="-76443156#1" departSpeed="max"  departPos="random"  type="fastCar"/>
    <trip id="16" depart="1.60" from="76441694#2" to="-76441065#0" via="76441531#0" departSpeed="max"  departPos="random"  type="fastCar"/>
    <trip id="17" depart="1.70" from="76442079#5" to="-321748518" via="-305807458#2" departSpeed="max"  departPos="random"  type="fastCar"/>
    <trip id="18" depart="1.80" from="76441787#0" to="-258787159#2" via="-76442090#0" departSpeed="max"  departPos="random"  type="fastCar"/>
    <trip id="19" depart="1.90" from="-362066956#3" to="76419221#2" via="-76441807#3" departSpeed="max"  departPos="random"  type="fastCar"/>
    <trip id="20" depart="2.00" from="362066956#4" to="76419221#2" via="76441764" departSpeed="max"  departPos="random"  type="fastCar"/>
    <trip id="21" depart="2.10" from="76441065#0" to="76441807#1" via="-76441067#3" departSpeed="max"  departPos="random"  type="fastCar"/>
    <trip id="22" depart="2.20" from="76443176#3" to="76441531#6" via="76441065#0" departSpeed="max"  departPos="random"  type="fastCar"/>
    <trip id="23" depart="2.30" from="76442079#0" to="-76441065#0" via="362066955#1" departSpeed="max"  departPos="random"  type="fastCar"/>
    <trip id="24" depart="2.40" from="-69738" to="76419221#2" via="-76442090#2" departSpeed="max"  departPos="random"  type="fastCar"/>
    <trip id="25" depart="2.50" from="305807458#2" to="-321748518" via="76443372#6" departSpeed="max"  departPos="random"  type="fastCar"/>
    <trip id="26" depart="2.60" from="76441065#1" to="-76441807#1" via="76441385#1" departSpeed="max"  departPos="random"  type="fastCar"/>
    <trip id="27" depart="2.70" from="76443031#1" to="76419221#2" via="76445041#1" departSpeed="max"  departPos="random"  type="fastCar"/>
    <trip id="28" depart="2.80" from="76441164#4" to="76441065#0" via="76441202#0" departSpeed="max"  departPos="random"  type="fastCar"/>
    <trip id="29" depart="2.90" from="76419221#2" to="-321748518" via="-76441495#2" departSpeed="max"  departPos="random"  type="fastCar"/>
    <trip id="30" depart="3.00" from="-76442648#0" to="-258787159#2" via="-76441202#2" departSpeed="max"  departPos="random"  type="fastCar"/>
    <trip id="31" depart="3.10" from="76441958#2" to="-76441531#6" via="76441067#0" departSpeed="max"  departPos="random"  type="fastCar"/>
    <trip id="32" depart="3.20" from="-76442079#1" to="258787159#4" via="76443355#0" departSpeed="max"  departPos="random"  type="fastCar"/>
    <trip id="33" depart="3.30" from="361431608#4" to="-258787159#2" via="--69738" departSpeed="max"  departPos="random"  type="fastCar"/>
    <trip id="34" depart="3.40" from="-76441958#1" to="-76441807#1" via="76441958#3" departSpeed="max"  departPos="random"  type="fastCar"/>
    <trip id="35" depart="3.50" from="-76442471#2" to="-258787159#2" via="-76443156#0" departSpeed="max"  departPos="random"  type="fastCar"/>
    <trip id="36" depart="3.60" from="76443156#1" to="76441531#6" via="-76441385#3" departSpeed="max"  departPos="random"  type="fastCar"/>
    <trip id="37" depart="3.70" from="76442583#0" to="76419221#2" via="76442079#0" departSpeed="max"  departPos="random"  type="fastCar"/>
    <trip id="38" depart="3.80" from="-69740" to="-76441807#1" via="-76445041#6" departSpeed="max"  departPos="random"  type="fastCar"/>
    <trip id="39" depart="3.90" from="-76441958#3" to="258787159#4" via="76443372#6" departSpeed="max"  departPos="random"  type="fastCar"/>
    <trip id="40" depart="4.00" from="-76419221#2" to="76441807#1" via="76419221#2" departSpeed="max"  departPos="random"  type="fastCar"/>
    <trip id="41" depart="4.10" from="76441202#1" to="76443156#0" via="-76419221#1" departSpeed="max"  departPos="random"  type="fastCar"/>
    <trip id="42" depart="4.20" from="76442079#1" to="-76441065#0" via="76419221#1" departSpeed="max"  departPos="random"  type="fastCar"/>
    <trip id="43" depart="4.30" from="362066956#2" to="-76419221#2" via="76443372#0" departSpeed="max"  departPos="random"  type="fastCar"/>
    <trip id="44" depart="4.40" from="76441531#1" to="76441531#6" via="-152627338#1" departSpeed="max"  departPos="random"  type="fastCar"/>
    <trip id="45" depart="4.50" from="-76441202#0" to="-76443156#0" via="76441164#0" departSpeed="max"  departPos="random"  type="fastCar"/>
    <trip id="46" depart="4.60" from="76442471#0" to="76443156#0" via="76442471#1" departSpeed="max"  departPos="random"  type="fastCar"/>
    <trip id="47" depart="4.70" from="362066955#0" to="258787159#4" via="76445041#2" departSpeed="max"  departPos="random"  type="fastCar"/>
    <trip id="48" depart="4.80" from="-76441531#5" to="-76419221#2" via="76442471#2" departSpeed="max"  departPos="random"  type="fastCar"/>
    <trip id="49" depart="4.90" from="-76441958#1" to="76443156#0" via="-362066955#1" departSpeed="max"  departPos="random"  type="fastCar"/>
    <trip id="50" depart="5.00" from="-76445041#8" to="-258787159#2" via="76441385#3" departSpeed="max"  departPos="random"  type="fastCar"/>
</trips>
