<?xml version="1.0"?>
<!-- generated on 2017-02-10 15:02:51.924684 by $Id: randomTrips.py 19495 2015-12-02 12:36:28Z behrisch $
  options: -n ottawa.600.roads.xml <doubleminus>r ottawa.600.routes.xml -a ottawa.600.randomTrips.xml <doubleminus>begin 0 <doubleminus>end 60.00 <doubleminus>period 0.1 <doubleminus>min-distance 0 <doubleminus>fringe-factor 1 <doubleminus>intermediate 50 -l -o ottawa.600.trips.xml
-->
<trips>
    <trip id="0" depart="0.00" from="76441958#3" to="-76442443#0" via="76442583#3 -362066955#2 152627338#0 76441141#3 -76441067#2 258787159#2 76441202#0 305807458#0 -258787159#5 76441807#3 362066955#3 -76442079#2 76442443#4 -76441437#0 76441141#4 76441787#1 76441141#6 76443747#0 -76441807#0 -76441065#0 -76442018#1 76442443#1 -76441385#0 76443312#2 -76442648#1 76441164#7 362066955#0 -139108139 -76443156#0 76441141#0 -76441904 -76442870 258787159#4 -76442648#1 76441164#3 77699442 76441807#2 -76441437#4 -76441958#1 76441385#1 -40376 258787159#4 -362066955#2 -76441385#1 76443156#4 -76441067#3 76441807#2 -76443312#0 -76441958#2 -367636030#1" />
    <trip id="1" depart="0.10" from="-76443587" to="76441787#5" via="258787159#4 76441164#7 -76443355#3 -76445041#8 76441385#1 77699442 76441164#5 -321748518 76441164#5 76441164#7 -76441234#1 258787159#1 -76443312#2 -362066955#0 76443176#3 -305807458#2 76441437#2 76443372#2 -76442090#2 76443355#3 -76441164#4 76441365#1 76419487 -76443355#3 -76442079#3 76441495#1 258787159#1 76441787#6 -76445041#8 76419221#0 258787159#4 -361431608#2 76441164#0 -258787159#5 76442443#8 76441164#1 76441437#2 -76443355#3 258787159#1 -76441807#0 -76443355#3 76443355#3 -76442090#3 76441365#2 -76442443#2 -76445041#3 76441807#2 76419221#1 76443747#2 -76442648#1" />
    <trip id="2" depart="0.20" from="-76445041#7" to="-258787159#6" via="-76441067#3 -76443372#0 362066955#5 76419487 76442090#0 76443747#1 -76441365#2 76442090#3 305807458#0 -76441531#0 76443372#6 -76442471#0 76441141#6 76443312#3 -76442090#3 76441067#0 76441437#2 -152627338#0 -258787159#5 258787159#1 362066955#2 -76441067#0 76445041#7 -76443587 -76441958#4 -76441437#0 76441202#0 -76441694#1 76442648#0 -76419221#0 76443176#0 -76441067#0 76443312#0 76441807#3 76442648#1 76419221#0 76443587 -76441807#0 -76443747#3 -76443156#0 -76442079#0 -76442090#2 76441141#3 76441234#3 -76441365#1 -76441365#1 -76442079#3 76442443#10 -76443747#0 -76441234#3" />
    <trip id="3" depart="0.30" from="76441164#1" to="76442471#1" via="76443312#2 76442648#0 76442648#1 300719826 76443031#0 76441067#1 -76443355#3 152627338#1 76443031#0 76441958#2 76419221#0 76441385#3 361431608#4 -76419487 -76442648#0 -362066955#0 76445041#0 -76442471#0 258787159#4 -76441437#0 -76441065#1 -76441385#1 76441065#0 -76441531#7 362066955#0 76441385#0 -362066955#0 76442443#6 76443747#2 -76441526 76443031#2 76441141#6 -76441385#0 76445041#5 -76441065#0 -362066955#5 76441807#1 76441164#0 -76441065#0 -76442150 --40374 76443372#5 76442583#4 139108139 -152673567#0 -76442583#0 76442648#1 76441787#5 76442648#1 361431608#4" />
    <trip id="4" depart="0.40" from="76441141#4" to="-362066955#3" via="76441164#3 76441787#1 76441694#1 76441067#3 -305807458#0 76441365#1 -258787159#5 -361431608#3 76441385#3 -76445041#2 76443355#3 -76441437#4 -361431608#2 -40376 76442870 -76443747#3 76441958#0 -76442150 76441067#1 -76419221#2 -76443156#3 -76441202#0 -76441164#2 -76441958#3 76442090#1 -76441164#8 76442648#2 -76442648#2 76441067#2 -258787159#1 76419221#0 -76441202#0 -76441787#3 -76419221#0 76443355#1 -76441385#3 -76442079#0 258787159#2 -76442443#3 -76419221#0 76442090#3 76441807#3 76441526 -76443355#1 76441531#6 76441164#6 305807458#0 -76441495#1 76441495#0 362066955#1" />
    <trip id="5" depart="0.50" from="-76445041#5" to="-76442443#2" via="76441958#1 -76443747#1 361431608#2 -76443372#3 76441787#1 -76441958#1 76441958#3 76441067#2 76445041#8 -76441067#0 -258787159#5 -361431608#4 76442443#4 -76441065#0 -76443372#3 -76441958#1 -76442090#2 -76441164#5 -76441807#1 -76441234#1 -76441067#0 76441526 -305807458#0 76441385#0 76443355#2 -76441694#1 -76441065#0 305807458#2 -76441234#1 76441385#3 76442090#1 76445041#6 -76445041#3 76442648#0 76443156#3 -76442443#2 -76442648#0 -367636030#1 -76443355#3 -76442079#3 -76443355#1 -305807458#0 -76443747#1 76443372#6 -76441164#3 -76441495#2 76442090#3 76441437#0 76442443#6 76442648#0" />
    <trip id="6" depart="0.60" from="-76441385#2" to="76443355#3" via="-76443372#1 -258787159#5 258787159#5 -362066955#2 -367636030#1 -362066955#4 76441164#7 76441164#5 76442018#0 -76441202#0 -76443355#3 76443355#0 76443312#3 76443312#1 -76443372#1 76441202#0 -76441807#0 -362066955#1 300719826 76441807#3 76443176#2 76441385#0 76441437#0 -76419487 76445041#4 -76441495#1 361431608#4 -76441495#2 76441437#0 76445041#0 -76441234#1 76443355#1 -76443747#3 -76441365#1 76443372#3 76442150 76441807#2 -76441958#1 76442090#2 76443176#1 76441202#0 -76441437#1 76441141#1 -76443747#3 -76442471#0 -76441531#0 -76443312#1 76441067#0 -76441385#2 76441437#0" />
    <trip id="7" depart="0.70" from="152627338#1" to="76441807#2" via="76441164#8 -76441067#0 76441482#2 76441141#0 305807458#2 76442443#8 76441141#3 -76441958#4 -76442018#1 -76441787#1 -76419221#0 76441437#3 -76441385#0 -76441437#0 -76445041#2 76442150 305807458#2 76441067#1 -258787159#6 76443156#1 -76443156#1 -362066955#5 -76442648#1 76443312#1 76441065#2 -76441787#2 -362066955#3 -361431608#4 76441437#0 361431608#2 76442648#1 76441141#3 76443031#0 -76442018#0 -76442018#0 -76441164#2 -76441065#0 -76441531#7 -76441807#0 77699442 76441958#0 76443587 76445041#0 -76441164#5 76443176#3 -76443747#3 76442583#2 -76441202#1 -76442090#0 76443747#1" />
    <trip id="8" depart="0.80" from="-76445041#3" to="76443031#0" via="-76442443#8 -76445041#1 305807458#2 76441067#3 76442443#10 -76441787#6 76441807#2 -362066955#2 -76442018#0 76443176#0 -76442443#0 -362066955#1 -76442443#8 76441437#4 76443031#0 76441807#1 -76441437#2 76441958#0 -76443312#1 362066954 -76442443#9 -76441385#2 258787159#1 361431608#3 -76442648#2 76441141#5 76441904 -76441807#0 76443355#3 -152627338#1 76443747#2 76441385#2 362066954 -76443355#1 367636030#0 76442443#1 -76441437#0 362066956 -76441234#0 -76441807#1 -76445041#5 -40376 76443747#0 76441787#6 76441065#2 76443355#0 -258787159#1 76441385#1 -76445041#0 76442583#4" />
    <trip id="9" depart="0.90" from="-76443355#2" to="-76442090#2" via="-76445041#3 76443031#1 305807458#0 -76441531#1 -305807458#2 76441365#1 -76441787#7 76441669 361431608#4 76441807#3 76441958#2 -362066955#3 76441202#0 76441694#1 -76442090#1 -76441437#0 -362066955#1 -76441787#3 -76419487 -76441067#3 76442443#2 -76441385#0 -76442443#10 76441234#1 76442443#4 -76441067#0 76441773 -76441694#1 76441365#1 76443156#4 362066955#0 76441141#2 -76441437#0 76441385#0 -76441807#0 76441065#2 76443355#1 76443156#1 -76442443#1 76443312#2 -76441787#1 -40376 362066955#4 76443355#2 -76441234#1 76441141#1 76419221#2 76445041#3 -76441669 76441694#1" />
    <trip id="10" depart="1.00" from="76445041#1" to="76441807#1" via="-40376 -76441437#3 76441437#2 152673567#0 76419221#2 76441531#0 300719826 -362066955#0 -305807458#0 -76419221#0 -361431608#3 76442090#0 76443176#0 76442443#1 -362066955#3 76445041#8 -76441904 76443747#3 -76442443#3 76442471#3 -76441531#0 152673567#0 -76441385#1 -258787159#2 -76443747#3 76443355#0 -76442090#3 -77699442 -362066955#1 152673567#1 76443747#2 76441958#2 -76441807#1 -76441365#2 -76442443#2 -76443312#1 -76442583#0 258787159#7 -258787159#4 76441437#0 -76441773 -76442583#1 152627338#0 -362066956 -76441234#3 -76441495#0 76443031#2 76443176#3 362066955#3 -40376" />
    <trip id="11" depart="1.10" from="76419221#0" to="-76442648#2" via="76443355#3 76443312#2 76441495#2 -76441531#0 -76443747#0 -76442648#0 76441482#2 76441807#1 76441482#2 -321748518 -76443747#0 76441787#5 76441531#4 76441234#0 76442471#3 -40376 -139108139 76443176#5 76441958#0 -305807458#2 76441141#0 76442090#1 76442443#8 -76443747#2 -76442648#2 -258787159#6 76441141#3 76441067#2 76441141#3 76443372#5 76442150 76442079#0 -76443355#2 76441482#1 -361431608#0 -76441531#4 76441234#1 -76441669 76442079#3 76441437#2 -76441787#8 76442471#3 -362066956 76441141#3 -76441787#1 76442443#1 -40376 -305807458#2 76441437#3 -76443747#0" />
    <trip id="12" depart="1.20" from="76441234#1" to="-362066955#4" via="-76441807#2 76419487 362066955#1 362066955#3 -76442443#8 -76441482#1 -152627338#0 76441807#3 -77699442 -76443355#0 -362066955#3 -258787159#7 -362066955#2 --40374 76443747#1 76442583#3 76443747#1 -76443355#3 -76441365#1 -76442443#8 76443355#0 361431608#1 -258787159#5 76419221#0 -76442583#1 -76441385#0 76443031#1 -76441787#2 76441141#5 76441234#0 76441385#2 -76443372#7 76443355#0 76442090#2 -152627338#0 76443156#3 76441495#2 -76442583#2 -76442090#1 -76441531#2 76441807#2 -76441385#2 -76442648#0 -76442583#2 -76441495#2 76442443#9 -76441164#6 -76443312#2 76441234#3 -76442090#3" />
    <trip id="13" depart="1.30" from="76441958#0" to="76441787#9" via="76441787#7 76441385#0 76442443#1 76443156#4 -76441365#3 76443372#2 -76441787#8 -76442090#1 -76441787#2 76443031#1 76442079#4 -76441065#0 -76442443#0 76441234#1 -362066955#0 76441385#0 -76443747#0 76443372#5 -76441065#0 -76441526 76443355#0 -76442648#0 -361431608#0 76443156#4 305807458#2 76441807#1 76445041#5 -361431608#0 361431608#1 -76443747#0 76441234#1 -76441385#2 -76441065#0 76441234#3 76441807#3 76441385#1 -321748518 76441787#8 -76442150 -76441067#1 -76441365#1 362066955#2 -76441067#3 -258787159#4 362066955#4 76443031#0 -258787159#5 362066955#1 76441437#3 76441067#3" />
    <trip id="14" depart="1.40" from="-76441773" to="-76443355#0" via="-152673567#1 -76443587 -76443747#3 -76442443#8 -76445041#6 -361431608#3 76443312#1 76419221#1 76442443#3 76441807#2 258787159#7 -76443355#1 -76443312#0 76441234#1 76442443#10 -76442090#0 -76441385#0 -76442471#3 -76443261 76441202#1 76441437#0 -76443355#1 -76441787#9 76442443#0 76419221#2 76441437#0 -139108139 152627338#0 76441807#2 76445041#5 76442648#1 76441365#3 -76441787#5 -76443312#1 -76419221#0 362066955#3 -76419221#0 -76442079#0 76441164#7 -362066955#3 76441904 -258787159#1 76441141#2 76441067#2 -76442648#0 -362066955#0 -76441437#0 -76442090#3 258787159#5 -76442443#2" />
    <trip id="15" depart="1.50" from="-321748518" to="-76443747#3" via="-76441067#3 76443355#0 -76441385#0 76441385#3 -76442443#1 76419221#0 76445041#7 -76442471#0 -76443355#0 -76441202#1 -321748518 76442443#4 -76442443#1 -361431608#1 305807458#0 --40374 76441164#3 -76441807#0 76442583#2 76441437#0 76442079#2 76443031#1 76441141#3 -76441067#3 362066955#3 -76441807#2 -361431608#3 -76443372#5 -40376 -76441385#3 -305807458#2 76441531#2 -76419487 76443031#1 -76441437#2 76441773 76441958#2 -76442443#2 -258787159#4 -76443587 -362066955#0 -76442090#1 76443747#0 76442583#4 76441234#1 362066955#4 -76441067#2 258787159#3 76441141#2 -77699442" />
    <trip id="16" depart="1.60" from="-76441385#2" to="-76441234#1" via="-76445041#7 -76443355#2 -76441385#0 -76442648#2 361431608#3 76441065#2 -76441065#0 -362066955#0 76445041#4 76441067#3 -76443747#3 76442090#3 -76443372#4 -76441787#6 361431608#2 -76419221#1 76441787#0 258787159#5 76442443#8 -76441202#0 -362066955#1 -76443355#2 -76441787#5 -76442090#0 76441065#1 76442471#2 76445041#0 -76442443#8 76441067#0 76441807#1 76442648#2 -362066955#2 -76441787#9 76443747#2 -76441164#7 -76442443#2 -76442471#1 76441787#6 -76442471#3 -362066954 -76443747#1 -152627338#0 76443372#3 -258787159#1 258787159#2 -76441694#1 76443747#3 -76442090#3 -76441437#0 -76443355#3" />
    <trip id="17" depart="1.70" from="-76441482#1" to="76419487" via="-258787159#6 -76441065#1 76443156#3 76441385#1 -76441234#0 -76441385#3 76441531#4 -321748518 76442079#1 76441437#0 305807458#0 76443355#2 -76443156#1 305807458#0 -76443372#3 -76442870 76419221#1 -76441437#4 362066955#5 76441904 -76441164#8 76443355#1 76441437#2 362066955#1 258787159#1 -76441495#0 361431608#0 76441065#1 -76441067#3 76441437#0 76442443#1 --40374 -76445041#7 76442090#0 76441958#1 -76441202#0 -305807458#2 -76443355#0 -76441437#0 76441065#1 -76441067#0 -76442150 -76441904 -76441065#0 -76443355#2 -76442583#0 76441202#1 -76441531#5 -76441065#1 76443747#0" />
    <trip id="18" depart="1.80" from="76443176#5" to="76441495#0" via="-152627338#1 76441141#3 76442079#2 76441787#4 76443355#1 76441482#2 -76442870 76441807#1 -76443355#2 -258787159#6 -76441365#2 76442090#3 76441482#2 -76442648#1 76443355#0 -139108139 -76441202#1 76442471#0 76441385#3 -76442443#1 76443176#0 -76442079#4 -76441437#0 -362066955#3 -76443355#1 -76441067#0 76441067#3 76441141#6 367636030#0 -76442090#3 -76441958#2 76443156#0 258787159#2 76441787#9 76443031#0 -76443355#0 -76442443#0 -76441164#6 76441067#3 -76443372#1 -76443372#8 -258787159#5 258787159#3 76443355#0 -40376 76441787#4 -76441958#4 -258787159#7 -258787159#3 76443312#2" />
    <trip id="19" depart="1.90" from="76443355#3" to="-76441482#0" via="76443176#5 258787159#1 -76442583#4 76445041#6 -76443261 -76442090#2 -76441958#0 76442018#0 300719826 76441065#2 76441787#9 -76442079#3 76442443#0 -76442090#0 76441807#1 258787159#7 -76442443#6 76442090#1 76443312#1 -76442648#1 76443031#0 -362066955#5 -76419221#0 76445041#4 -76441531#2 -361431608#3 -76441807#0 258787159#1 76443372#2 -76445041#0 -76441807#1 361431608#0 76441141#3 76441067#2 -76443355#3 -76441164#0 -361431608#1 76441141#1 -76443355#3 76419221#0 76441531#6 -76441065#0 76441067#1 305807458#0 76441385#3 76441787#2 305807458#0 76443587 76443156#2 -76441385#0" />
    <trip id="20" depart="2.00" from="76441807#3" to="-76441385#3" via="76443176#2 361431608#4 76441385#0 76441365#1 76441958#4 76443312#0 -362066955#2 -305807458#2 -361431608#4 76443176#2 -362066955#2 76441437#2 139108139 76442870 -76441234#3 152627338#0 -76441164#3 361431608#1 -76443747#0 76442443#2 76442443#5 76419221#0 76443312#0 152627338#0 -76445041#8 -76441385#2 -76441385#2 76443747#0 76445041#1 76443355#1 76441365#1 305807458#2 -76443747#1 -76441531#7 362066955#4 361431608#3 -76445041#5 -76442471#2 -76442090#1 76441164#7 -76442648#0 76445041#6 77699442 76441202#1 -76443747#3 362066955#1 76441526 -76441067#2 76445041#2 305807458#0" />
    <trip id="21" depart="2.10" from="76443176#0" to="76443176#0" via="-76441065#1 76442079#4 76442443#4 76443372#5 -76441787#2 361431608#0 76441904 -76441437#0 -76441385#1 76441067#3 76445041#4 -76445041#2 76445041#1 -76441807#1 76441482#0 258787159#7 152627338#0 76441787#1 305807458#2 76441787#7 76441787#7 76441141#3 76441365#2 76441067#3 -76445041#5 -76441531#1 76441065#0 305807458#0 -76441385#3 -76441807#2 76443031#0 -76443747#2 152627338#0 76441385#0 76443355#1 -76441202#0 76441067#2 305807458#2 76443031#1 -76441202#1 76443747#2 -305807458#0 -76442443#0 -76443355#1 76441385#1 -76442443#1 -76445041#8 -258787159#2 76442648#2 362066955#1" />
    <trip id="22" depart="2.20" from="76442648#1" to="-76443355#2" via="-76442079#0 76441141#0 -76442583#0 -361431608#0 -76442471#1 -76442443#0 76442090#1 76441234#1 76441787#1 -76441385#3 76441365#1 -258787159#3 76443372#4 76442443#8 300719826 -76441904 -76441067#2 76443372#0 152673567#0 -76441958#0 76443156#4 -305807458#2 76442079#4 76442443#10 -76441531#4 76441065#0 -362066956 -77699442 -362066953 -76419487 -76441164#6 305807458#2 -76441787#9 76441437#1 -76441531#7 -76443372#2 361431608#1 76441234#3 -321748518 76443355#2 -361431608#4 -152673567#0 -76443312#2 76441065#1 -76441531#1 76441531#2 -76445041#8 76441437#0 76442443#4 -76442079#0" />
    <trip id="23" depart="2.30" from="258787159#3" to="76441164#1" via="76441385#0 -76441787#9 -76441807#0 76443355#2 -40376 -76442443#5 -76443747#2 -76441065#0 76441164#3 -76441067#3 -76441531#0 -362066955#0 -76441234#2 -76443355#0 -76443355#1 76442471#3 76443176#0 -76441202#1 76441067#1 -77699442 -76419221#0 76441694#1 76442471#1 -76441067#0 -139108139 76442090#3 76441202#1 -76442079#1 -76443312#0 -76441531#1 -362066956 76441234#1 -152627338#1 -76441385#1 76441065#0 76442443#6 -76441164#5 -361431608#1 -139108139 -76442443#3 -76442018#0 76441141#5 361431608#2 76443312#3 76441067#2 -76441067#3 76441365#1 -76443747#2 76441164#7 -76443156#1" />
    <trip id="24" depart="2.40" from="76443355#3" to="362066955#2" via="-76443372#2 76443372#5 76441807#1 -258787159#2 -76441787#8 258787159#2 76441495#1 258787159#5 76441365#2 -76441385#2 -76441495#0 -76443355#3 -76442443#1 -76441787#6 76442150 -76441164#1 -76441234#3 -76443747#2 -76443355#1 -76442648#2 -76419221#2 76443312#0 76443312#0 -76441385#0 -76441437#0 76441141#6 76442090#2 -76441482#1 76443031#1 76441065#1 -76441958#1 76443176#0 305807458#0 -76441526 -76441482#0 152673567#0 -76442443#1 76445041#6 -76441067#2 76441385#1 76441437#3 -152627338#0 76442648#0 76441531#6 76442648#0 362066954 76441482#1 305807458#2 76443031#1 -76441385#2" />
    <trip id="25" depart="2.50" from="-76443372#5" to="76441669" via="76445041#6 -76441437#0 76441526 76441694#1 -152627338#1 -152673567#0 152673567#1 76441065#1 76441164#4 76442079#2 76441141#2 362066955#0 76443372#7 -76441531#2 -76443355#3 -258787159#3 -76442648#1 -321748518 -76442443#10 76442443#8 361431608#0 -76441385#0 76441234#3 76441234#3 76445041#5 152627338#0 -362066955#2 -76443372#1 76442443#8 76441482#2 76442090#0 76441526 -76441067#0 361431608#2 76441385#1 76443355#2 76441526 -321748518 -76441067#3 -305807458#0 76442583#1 258787159#5 -76441202#1 76442090#3 -76441385#3 76441141#5 76442443#1 76442648#1 -258787159#5 -76441065#1" />
    <trip id="26" depart="2.60" from="76443212" to="76442443#9" via="76441385#1 76443355#3 -152673567#0 -258787159#2 76441958#3 76441141#6 -76443355#3 -139108139 -40376 -76441065#1 -305807458#2 258787159#2 -258787159#7 76442648#0 -76419221#2 76443747#2 -76441437#0 76442583#2 76441202#1 362066955#5 -76443372#0 -305807458#2 76443372#3 76441958#0 76441694#1 -76442583#1 76419221#2 361431608#3 -76443747#2 -76441531#7 76441787#8 -76441437#0 362066955#1 -76442090#2 76441807#1 76443355#1 152673567#1 -76442090#2 -76442583#0 300719826 258787159#7 76441385#1 -76442471#0 -76441904 -362066955#1 76443156#3 -361431608#3 76442443#4 258787159#7 258787159#2" />
    <trip id="27" depart="2.70" from="-258787159#4" to="76441365#1" via="76441531#7 -76445041#1 -76442079#2 -76441067#0 258787159#4 -305807458#2 76442443#5 362066955#4 76441141#3 -76443372#6 -362066955#5 76443176#1 76441234#1 -76442648#1 -258787159#3 -76441385#0 -305807458#2 76443176#3 76443372#8 76441067#0 76441807#1 -76442443#8 76442443#0 -76441958#4 -321748518 --40374 -76441385#0 -76441958#0 -76441787#7 76441807#3 -76441807#1 152673567#0 -76441065#1 76443355#3 -76442648#0 76443031#1 -76442443#2 362066955#3 76443156#1 76441807#1 -76442090#1 -76443261 76443372#0 258787159#3 76441234#1 -362066954 -76443747#1 76442018#0 76442018#0 -76441531#1" />
    <trip id="28" depart="2.80" from="-76441365#1" to="-76443747#2" via="-76441526 76441385#1 76441385#0 -76441787#1 76441531#6 -362066955#3 -76443372#0 -76442079#0 76441531#4 362066956 -76442443#7 76441531#5 -76441807#0 -76441437#0 -76442443#0 -76443355#3 -361431608#1 -76441234#1 -305807458#0 -76442471#2 76441482#0 -76443261 -76442443#8 361431608#1 -76442648#0 -76441437#1 -258787159#7 76441495#0 -258787159#2 76443312#2 152673567#1 -76443372#8 -258787159#6 76442018#0 -361431608#1 -76441437#0 -76441067#3 76442018#0 -76443747#3 76441234#0 -76442443#3 76441164#4 361431608#2 76443372#0 76441787#9 -76442471#2 76441067#3 -76441807#1 -76441164#1 -76442583#3" />
    <trip id="29" depart="2.90" from="76441141#5" to="300719826" via="76441065#1 76442443#7 76443372#1 -76442018#0 -76441067#0 -152627338#0 -76441202#0 76442443#1 -76442583#3 76443372#7 76441669 367636030#0 -76442648#1 -76441807#0 76441807#2 76442443#0 -76441065#1 76442443#4 -76441807#0 76441164#4 -76441365#1 -76441202#0 152627338#0 76443176#0 -76442090#2 -76441065#1 -76442443#1 76443176#5 -76441385#3 -76441669 76443355#1 -76443372#0 -76441065#1 76441437#0 76441365#3 76441164#4 -76442443#0 76441202#0 -77699442 -76441067#2 -76443747#2 76443372#8 76441904 -76442090#0 -76443372#6 76441164#2 -76441437#0 76445041#8 76442018#0 152627338#0" />
    <trip id="30" depart="3.00" from="76443372#4" to="-76441164#0" via="-139108139 362066955#4 -305807458#2 -321748518 362066953 -76443587 -76442018#1 -76441807#0 -361431608#3 -76441437#0 -76441385#3 76443156#4 76443156#4 76441065#2 152673567#0 76442870 76442443#0 76443176#4 258787159#6 -76419221#2 -76442443#8 -76441807#0 76441482#2 -76445041#4 362066955#3 76441437#0 -76443747#0 76445041#6 76441234#2 -76441385#3 76443031#1 -76441164#7 76441164#4 76443176#3 76442471#2 76445041#7 76443355#3 76441385#1 76442018#0 152627338#0 -76443372#7 76442018#0 -321748518 258787159#7 -76441437#0 -362066955#1 -76419221#2 76441234#3 300719826 76441365#1" />
    <trip id="31" depart="3.10" from="-361431608#3" to="76442583#1" via="-76441437#1 76441958#1 76441067#2 76441531#4 -76441495#1 76441065#2 -76443587 76441141#5 76443747#1 -76443372#2 76443747#2 76442471#1 258787159#3 76445041#5 76441365#1 -139108139 -76441526 -76419221#1 76442443#5 -258787159#5 -76441531#6 76443031#1 76441669 -76441365#3 76442583#2 76441164#5 -76419221#0 76441164#7 76419221#1 -76441669 -76443156#1 -76443372#3 76441437#0 76443156#4 76442443#10 -76442648#1 -76442443#10 -76441065#0 76441531#5 76441531#5 -76441437#3 -76442090#0 76443587 -76441164#4 76441067#0 76441065#1 -258787159#3 361431608#3 -76441067#0 -76443312#0" />
    <trip id="32" depart="3.20" from="76442583#4" to="-139108139" via="-76443261 -76441669 -362066955#5 76441164#2 76441164#8 76443747#0 362066955#0 76445041#4 76443372#0 362066955#0 -258787159#4 76442648#0 -76442150 -76443156#0 361431608#2 76441526 76442443#2 -76445041#5 76443587 -76441234#1 -76442583#1 -76445041#0 -76441787#7 -76441773 76441904 -76442443#7 152627338#0 -305807458#2 76443355#0 -76441787#6 -76441773 76441164#1 -76441164#0 -76443355#0 -76442471#1 -76443372#8 76441787#3 -76441385#2 -76443355#0 -305807458#2 -305807458#0 76443747#0 152627338#0 -76441164#7 76442648#0 -76441065#1 -76441437#0 -76443747#2 76443031#1 76441067#3" />
    <trip id="33" depart="3.30" from="76443212" to="-76442583#0" via="76442443#8 76443747#1 -321748518 77699442 -76442090#3 76441526 76443747#2 76441164#5 76441141#3 305807458#0 -258787159#1 -76441787#0 -362066954 76441067#3 258787159#7 -305807458#0 76441482#2 -76441807#1 -76443747#2 -305807458#0 -76441531#6 -76443156#0 -76441787#4 -76441164#7 76443747#2 -76443156#1 -76443747#1 -258787159#5 -76442471#0 305807458#2 --40374 76441787#0 76443372#6 76441531#2 76443355#0 -76441234#1 76441385#3 76442443#1 361431608#4 76443176#0 -305807458#2 362066955#2 76441067#0 -76441958#3 76441385#1 -76443587 -76441164#8 -258787159#1 -139108139 -76441437#0" />
    <trip id="34" depart="3.40" from="-76443156#0" to="76441807#3" via="76441234#2 362066955#3 76442443#8 76441365#3 -305807458#2 -76441234#1 362066955#2 76441065#1 -76442150 -152627338#0 258787159#2 76442443#0 76441787#2 367636030#0 -76441065#0 76441365#1 76441365#3 258787159#4 76442583#3 362066955#0 305807458#2 -76442648#1 76442090#3 76442090#3 76442648#0 362066955#2 76442090#2 76419221#0 76441531#6 76443372#2 76442443#2 76441437#0 367636030#0 -152627338#1 -76441234#0 76441526 76441807#1 -76441531#5 76441065#0 -361431608#1 76441531#1 76441385#0 -76441807#2 -362066953 -362066955#0 -76419221#0 76442090#1 -76441694#1 76443747#1 76441694#1" />
    <trip id="35" depart="3.50" from="-76441385#3" to="-76442443#5" via="76443747#2 362066955#1 -76441437#0 -76441807#0 76441531#0 -76443747#2 76441531#1 -305807458#2 76441202#0 -76441773 -76443747#2 76442471#1 76441531#2 305807458#0 -362066955#5 -40376 -76441495#0 76442090#3 -76441437#0 362066955#4 76441067#2 -76443372#6 -76441067#1 361431608#4 76443355#0 -76442443#8 -76443355#2 -76443587 361431608#3 -258787159#2 -76445041#1 -76443261 76441787#1 -76441531#1 258787159#6 -76441164#6 76443372#3 76441067#2 76441787#0 -76442090#1 76443747#3 76442443#5 152627338#0 -76441482#1 -76442443#8 76443156#4 300719826 76442443#8 -76443355#2 76441437#0" />
    <trip id="36" depart="3.60" from="-76443355#3" to="367636030#0" via="76443747#0 -258787159#1 76441234#3 76442471#1 258787159#5 76443176#2 -76445041#8 -76442648#2 152627338#1 -76443372#6 -76443747#2 -76443747#1 76441067#2 -76445041#1 -258787159#5 361431608#2 -76441787#6 76441787#5 -76445041#7 -76443261 -76442079#1 76442090#1 76442079#1 -305807458#2 258787159#1 76441164#0 76441067#2 -76419487 76443176#2 76441141#1 -76443355#0 -76442443#3 76441531#1 76441437#0 258787159#5 76442443#2 305807458#0 76441495#1 76441437#0 76442090#3 -362066955#3 76443355#2 -76441437#0 -76441234#3 -76441787#2 76441787#9 76441365#1 -76441807#2 76442648#2 76443372#8" />
    <trip id="37" depart="3.70" from="-76443372#8" to="-76441385#0" via="-76442443#10 76445041#4 305807458#2 76443176#3 76442648#1 -76443355#0 361431608#3 76442443#4 76443031#1 76443747#1 76443747#1 76443372#1 -76441807#0 76441065#2 -76441067#0 76442079#1 -76441958#3 -76441365#1 -76442443#10 76441234#3 76441141#3 -76441164#5 -76441787#0 -152627338#1 76441365#1 -76442079#0 76442443#0 -362066954 76443176#5 76441141#6 76441958#0 300719826 -76442079#2 -76441067#2 76441065#2 305807458#0 -76441234#3 -76442471#2 -76442648#0 76442090#1 76441234#3 76442443#10 76443176#5 -362066955#2 -76441164#8 76443312#1 76443156#4 76442443#4 76441437#0 -76442443#9" />
    <trip id="38" depart="3.80" from="-76441787#4" to="76443312#1" via="76443747#0 76445041#3 76441787#5 -305807458#0 -76441385#2 -361431608#2 -76443156#3 76441958#1 -76441807#0 -76441385#1 76443176#5 76442443#2 -152673567#0 -76443372#1 -361431608#1 76441365#2 76442079#0 76443372#6 -76442583#2 -76441531#4 -76441234#1 258787159#1 76445041#6 -76441065#0 -76442090#3 -76441437#0 76445041#1 76441065#0 -76441202#1 76441526 76441531#6 76443031#1 76442471#2 76441482#2 -76419221#1 -76441787#8 -258787159#6 76441065#0 -305807458#0 -76441531#0 -76442648#2 76441787#4 -76442648#1 76442648#1 76441482#2 76443312#2 76441531#6 76441807#2 76441234#3 -76442090#0" />
    <trip id="39" depart="3.90" from="76441141#4" to="305807458#2" via="-362066955#3 362066955#4 362066954 -76443156#2 76442648#1 76441904 76419221#0 -76441787#0 76441437#0 76441067#3 305807458#0 362066955#1 362066955#0 76443355#2 76419487 -76442443#2 76443355#2 -76441385#3 -76443355#1 -76442079#1 -76441437#4 76441904 76443355#2 -76442870 -76442443#2 -76441526 -76441385#3 -258787159#2 76441787#9 -258787159#6 76441141#4 -76441526 -76441787#8 -76441385#0 -76445041#2 76442870 76441065#1 258787159#6 76442090#0 76441787#6 -76441531#6 76441065#0 76442471#3 -305807458#0 76441164#5 76443176#0 -76445041#4 76443031#1 362066954 76441495#2" />
    <trip id="40" depart="4.00" from="-76441669" to="-76442481" via="76442443#8 76441141#2 76443176#1 76441495#2 76441787#0 76443156#4 76441065#0 76443156#4 76441365#1 -76442090#1 -76441437#0 76441787#5 76443747#0 -362066955#0 -76443156#1 76445041#3 76442079#0 76442443#0 76441807#1 -258787159#2 76443031#1 -76441526 76443747#2 76441141#1 -76441437#0 -76445041#8 76442443#1 76442150 305807458#2 76442648#0 -362066953 76441807#1 76442443#6 76441164#8 76441164#1 361431608#0 76442018#0 76441141#1 76441067#0 -76443747#1 76441141#1 -76441531#1 -305807458#2 76441437#0 76441787#9 -361431608#4 -76445041#6 76442090#3 -362066955#5 -76442079#0" />
    <trip id="41" depart="4.10" from="76441807#2" to="-76442090#0" via="-76442090#1 76442443#1 -76441067#1 76442648#2 -76442090#0 76443156#3 -76442079#2 -76441531#5 -361431608#0 -76445041#2 362066953 76442443#2 -76441067#3 -76441437#0 -76445041#3 362066955#3 -76441164#3 76442443#5 -76441531#7 76441773 -76441904 -361431608#1 -76442443#8 76441164#6 76419221#0 -76443156#2 76442443#0 76442443#9 76443312#2 305807458#0 -76442443#1 76441141#3 76419221#1 -362066955#4 76443176#1 76441164#7 -76441067#1 305807458#2 76443176#3 -76445041#2 76443372#0 362066955#0 -76442090#0 258787159#7 -76441365#1 -76442648#1 76441437#0 -76443372#2 76442079#0 -76441202#1" />
    <trip id="42" depart="4.20" from="76443372#0" to="76443176#2" via="-76441164#4 -76442443#2 -76442090#2 76443176#0 76441385#2 305807458#2 -76441067#0 -76441065#0 76441067#0 76441385#2 362066956 76441526 -152627338#0 76442443#2 -76441385#1 76441437#0 -76443312#1 76443355#0 305807458#0 -76441385#0 -76442090#1 76442150 76443355#3 76441234#3 76443747#3 76441164#8 -258787159#2 76445041#7 -76442443#10 362066955#1 258787159#2 76445041#6 -152673567#1 -76441904 76441202#0 -76441164#4 --40374 305807458#0 -76441437#0 361431608#0 362066955#5 76443355#3 -76441694#1 -76442648#0 361431608#1 -76442443#1 -76442443#0 76442443#4 76441141#3 76441495#0" />
    <trip id="43" depart="4.30" from="-76442090#3" to="76424480" via="-76419487 76419221#1 76441234#3 76443747#3 -76443355#3 -76441904 -76443747#1 -305807458#0 76441202#1 -76441807#1 76441787#6 -76442090#0 362066955#0 -76443355#0 -76441773 -362066955#5 76443355#2 76441807#3 -76443355#2 76441164#0 76419487 -76445041#5 -152627338#0 76443156#2 76442471#0 258787159#1 76443031#1 76441669 -76445041#0 -76441385#3 -76441807#1 76442090#2 76441669 305807458#2 76441385#0 305807458#2 -361431608#0 -76441067#3 -305807458#0 305807458#0 76442471#3 -139108139 -76442648#1 -76445041#5 -76441065#0 76441067#2 76419487 -40376 -76441437#0 -76441202#0" />
    <trip id="44" depart="4.40" from="-76442471#4" to="76441385#0" via="305807458#2 -361431608#2 361431608#4 76442443#2 -76443355#0 76442079#0 -258787159#6 76442471#1 -76442648#0 76443312#1 76419221#0 -76441065#1 76443372#0 361431608#0 -76443372#3 76443156#0 -76441531#7 -76441067#1 305807458#2 76441526 76442443#1 -76442648#1 -258787159#7 -76442648#0 76441437#0 76441164#0 76442090#2 76441531#6 305807458#2 76441065#0 -76445041#1 76442443#7 76441234#3 -76441669 76443372#6 -76441365#1 -76441385#1 76441787#6 76442079#1 -76441904 -76441164#6 -76441065#0 76443156#0 76442443#8 -76441495#1 77699442 -76442648#1 -76441067#0 76441065#2 76441385#2" />