<?xml version="1.0"?>
<!-- generated on 2017-03-16 17:22:08.925809 by $Id: randomTrips.py 19495 2015-12-02 12:36:28Z behrisch $
  options: -n ottawa.net.xml <doubleminus>begin 0 <doubleminus>end 45.00 <doubleminus>period 0.1 <doubleminus>min-distance 0 <doubleminus>fringe-factor 1 <doubleminus>intermediate 1 <doubleminus>trip-attributes=departSpeed="max"  departPos="random"  type="fastCar" -a ottawa.450.randomTrips.xml -o ottawa.450.trips.xml <doubleminus>weights-prefix ottawa
-->
<trips>
    <trip id="0" depart="0.00" from="-76441787#1" to="76441065#2" via="76441787#7" departSpeed="max"  departPos="random"  type="fastCar"/>
    <trip id="1" depart="0.10" from="-76443372#8" to="258787159#4" via="361431608#1" departSpeed="max"  departPos="random"  type="fastCar"/>
    <trip id="2" depart="0.20" from="76442471#1" to="-76419221#2" via="-76441531#5" departSpeed="max"  departPos="random"  type="fastCar"/>
    <trip id="3" depart="0.30" from="-76442648#2" to="-76441531#6" via="-76445041#2" departSpeed="max"  departPos="random"  type="fastCar"/>
    <trip id="4" depart="0.40" from="-76441807#3" to="-76441807#1" via="-76443747#2" departSpeed="max"  departPos="random"  type="fastCar"/>
    <trip id="5" depart="0.50" from="-76442648#2" to="76441787#9" via="76445041#6" departSpeed="max"  departPos="random"  type="fastCar"/>
    <trip id="6" depart="0.60" from="76441437#1" to="-76441807#1" via="-76441437#0" departSpeed="max"  departPos="random"  type="fastCar"/>
    <trip id="7" depart="0.70" from="-76441495#1" to="-76441807#1" via="-76442471#0" departSpeed="max"  departPos="random"  type="fastCar"/>
    <trip id="8" depart="0.80" from="362066956#2" to="76441065#0" via="76443176#3" departSpeed="max"  departPos="random"  type="fastCar"/>
    <trip id="9" depart="0.90" from="76442471#1" to="258787159#4" via="76443355#1" departSpeed="max"  departPos="random"  type="fastCar"/>
    <trip id="10" depart="1.00" from="-76442090#1" to="-76441807#1" via="-152627338#1" departSpeed="max"  departPos="random"  type="fastCar"/>
    <trip id="11" depart="1.10" from="76441807#2" to="-258787159#2" via="-76445041#0" departSpeed="max"  departPos="random"  type="fastCar"/>
    <trip id="12" depart="1.20" from="-76419487" to="258787159#4" via="-76445041#7" departSpeed="max"  departPos="random"  type="fastCar"/>
    <trip id="13" depart="1.30" from="-76441807#0" to="76441787#9" via="76443355#1" departSpeed="max"  departPos="random"  type="fastCar"/>
    <trip id="14" depart="1.40" from="76442090#0" to="76441807#1" via="-76442648#0" departSpeed="max"  departPos="random"  type="fastCar"/>
    <trip id="15" depart="1.50" from="76441694#0" to="-76443156#0" via="-76441787#2" departSpeed="max"  departPos="random"  type="fastCar"/>
    <trip id="16" depart="1.60" from="76442648#2" to="76441807#1" via="-321748518" departSpeed="max"  departPos="random"  type="fastCar"/>
    <trip id="17" depart="1.70" from="258787159#0" to="-76441787#9" via="76442090#2" departSpeed="max"  departPos="random"  type="fastCar"/>
    <trip id="18" depart="1.80" from="362066956#1" to="76441787#9" via="-76443355#1" departSpeed="max"  departPos="random"  type="fastCar"/>
    <trip id="19" depart="1.90" from="76442079#2" to="76441065#0" via="-76442090#3" departSpeed="max"  departPos="random"  type="fastCar"/>
    <trip id="20" depart="2.00" from="76443372#5" to="76441787#9" via="-76441437#3" departSpeed="max"  departPos="random"  type="fastCar"/>
    <trip id="21" depart="2.10" from="76441164#0" to="76441787#9" via="-76441164#4" departSpeed="max"  departPos="random"  type="fastCar"/>
    <trip id="22" depart="2.20" from="258787159#5" to="76441065#2" via="-152627338#1" departSpeed="max"  departPos="random"  type="fastCar"/>
    <trip id="23" depart="2.30" from="-76441787#1" to="76443156#0" via="76442246" departSpeed="max"  departPos="random"  type="fastCar"/>
    <trip id="24" depart="2.40" from="76441787#4" to="-76441787#9" via="76441958#3" departSpeed="max"  departPos="random"  type="fastCar"/>
    <trip id="25" depart="2.50" from="-76442079#2" to="76419221#2" via="76445041#4" departSpeed="max"  departPos="random"  type="fastCar"/>
    <trip id="26" depart="2.60" from="76443156#0" to="76441531#6" via="76441958#2" departSpeed="max"  departPos="random"  type="fastCar"/>
    <trip id="27" depart="2.70" from="76441164#5" to="76441787#9" via="76441764" departSpeed="max"  departPos="random"  type="fastCar"/>
    <trip id="28" depart="2.80" from="76443176#1" to="76441807#1" via="-76442090#0" departSpeed="max"  departPos="random"  type="fastCar"/>
    <trip id="29" depart="2.90" from="76441141#5" to="258787159#4" via="76441164#0" departSpeed="max"  departPos="random"  type="fastCar"/>
    <trip id="30" depart="3.00" from="76443156#3" to="76441065#2" via="-76442471#2" departSpeed="max"  departPos="random"  type="fastCar"/>
    <trip id="31" depart="3.10" from="76443355#2" to="-321748518" via="-76441531#3" departSpeed="max"  departPos="random"  type="fastCar"/>
    <trip id="32" depart="3.20" from="76442648#0" to="76441807#1" via="76443212" departSpeed="max"  departPos="random"  type="fastCar"/>
    <trip id="33" depart="3.30" from="76441141#2" to="-76443156#0" via="76441141#6" departSpeed="max"  departPos="random"  type="fastCar"/>
    <trip id="34" depart="3.40" from="-361431608#4" to="-321748518" via="76443156#4" departSpeed="max"  departPos="random"  type="fastCar"/>
    <trip id="35" depart="3.50" from="76442079#3" to="-258787159#2" via="-69738" departSpeed="max"  departPos="random"  type="fastCar"/>
    <trip id="36" depart="3.60" from="76441437#3" to="76441065#0" via="76441164#2" departSpeed="max"  departPos="random"  type="fastCar"/>
    <trip id="37" depart="3.70" from="76441065#2" to="76441065#2" via="76441787#9" departSpeed="max"  departPos="random"  type="fastCar"/>
    <trip id="38" depart="3.80" from="76441531#3" to="258787159#4" via="-362066956#4" departSpeed="max"  departPos="random"  type="fastCar"/>
    <trip id="39" depart="3.90" from="76441958#5" to="-76443156#0" via="-76443372#6" departSpeed="max"  departPos="random"  type="fastCar"/>
    <trip id="40" depart="4.00" from="-76441202#2" to="76441787#9" via="76443747#2" departSpeed="max"  departPos="random"  type="fastCar"/>
    <trip id="41" depart="4.10" from="76443156#0" to="-76443156#0" via="76441141#0" departSpeed="max"  departPos="random"  type="fastCar"/>
    <trip id="42" depart="4.20" from="76441202#0" to="76441065#2" via="76441067#1" departSpeed="max"  departPos="random"  type="fastCar"/>
    <trip id="43" depart="4.30" from="-76442246" to="-76419221#2" via="76443355#2" departSpeed="max"  departPos="random"  type="fastCar"/>
    <trip id="44" depart="4.40" from="76442090#1" to="76441787#9" via="-76441067#2" departSpeed="max"  departPos="random"  type="fastCar"/>
    <trip id="45" depart="4.50" from="-361431608#3" to="-76441531#6" via="76443176#3" departSpeed="max"  departPos="random"  type="fastCar"/>
    <trip id="46" depart="4.60" from="-76441531#3" to="-76441065#0" via="-76442079#2" departSpeed="max"  departPos="random"  type="fastCar"/>
    <trip id="47" depart="4.70" from="-76441531#5" to="76419221#2" via="76441958#5" departSpeed="max"  departPos="random"  type="fastCar"/>
    <trip id="48" depart="4.80" from="76442090#2" to="-321748518" via="76443176#3" departSpeed="max"  departPos="random"  type="fastCar"/>
    <trip id="49" depart="4.90" from="-76441437#1" to="76441065#0" via="76445041#6" departSpeed="max"  departPos="random"  type="fastCar"/>
    <trip id="50" depart="5.00" from="76442079#3" to="-76441787#9" via="-362066955#0" departSpeed="max"  departPos="random"  type="fastCar"/>
    <trip id="51" depart="5.10" from="76441531#1" to="-76441065#0" via="-76441385#0" departSpeed="max"  departPos="random"  type="fastCar"/>
    <trip id="52" depart="5.20" from="-76441164#3" to="76441531#6" via="361431608#0" departSpeed="max"  departPos="random"  type="fastCar"/>
    <trip id="53" depart="5.30" from="-76441385#1" to="258787159#4" via="76442648#1" departSpeed="max"  departPos="random"  type="fastCar"/>
    <trip id="54" depart="5.40" from="-139108139" to="-76441531#6" via="-76441164#1" departSpeed="max"  departPos="random"  type="fastCar"/>
    <trip id="55" depart="5.50" from="-76445041#7" to="-76441787#9" via="76441065#2" departSpeed="max"  departPos="random"  type="fastCar"/>
    <trip id="56" depart="5.60" from="76442471#0" to="-76419221#2" via="76441958#0" departSpeed="max"  departPos="random"  type="fastCar"/>
    <trip id="57" depart="5.70" from="76443031#1" to="76441531#6" via="76443212" departSpeed="max"  departPos="random"  type="fastCar"/>
    <trip id="58" depart="5.80" from="76441202#2" to="76441531#6" via="258787159#1" departSpeed="max"  departPos="random"  type="fastCar"/>
    <trip id="59" depart="5.90" from="76441787#1" to="76441065#2" via="-76445041#1" departSpeed="max"  departPos="random"  type="fastCar"/>
    <trip id="60" depart="6.00" from="76441385#1" to="-76441531#6" via="-76442648#1" departSpeed="max"  departPos="random"  type="fastCar"/>
    <trip id="61" depart="6.10" from="-76443372#0" to="-76419221#2" via="76441067#1" departSpeed="max"  departPos="random"  type="fastCar"/>
    <trip id="62" depart="6.20" from="362066956#0" to="-76441065#0" via="-76442079#5" departSpeed="max"  departPos="random"  type="fastCar"/>
    <trip id="63" depart="6.30" from="76443372#1" to="-76441065#0" via="-361431608#3" departSpeed="max"  departPos="random"  type="fastCar"/>
    <trip id="64" depart="6.40" from="-76445041#3" to="-76441807#1" via="362066955#3" departSpeed="max"  departPos="random"  type="fastCar"/>
    <trip id="65" depart="6.50" from="362066956#1" to="76441065#2" via="305807458#0" departSpeed="max"  departPos="random"  type="fastCar"/>
    <trip id="66" depart="6.60" from="-76442246" to="76441531#6" via="-76442090#3" departSpeed="max"  departPos="random"  type="fastCar"/>
    <trip id="67" depart="6.70" from="76419221#2" to="76441065#2" via="76419221#0" departSpeed="max"  departPos="random"  type="fastCar"/>
    <trip id="68" depart="6.80" from="-76443372#2" to="-76441807#1" via="-362066955#3" departSpeed="max"  departPos="random"  type="fastCar"/>
    <trip id="69" depart="6.90" from="76441067#2" to="258787159#4" via="76441787#6" departSpeed="max"  departPos="random"  type="fastCar"/>
    <trip id="70" depart="7.00" from="76445041#2" to="76441065#0" via="362066956#0" departSpeed="max"  departPos="random"  type="fastCar"/>
    <trip id="71" depart="7.10" from="76445041#5" to="76441065#2" via="-76443372#5" departSpeed="max"  departPos="random"  type="fastCar"/>
    <trip id="72" depart="7.20" from="362066955#2" to="-76441531#6" via="-321748518" departSpeed="max"  departPos="random"  type="fastCar"/>
    <trip id="73" depart="7.30" from="76441164#4" to="76441065#0" via="76441164#2" departSpeed="max"  departPos="random"  type="fastCar"/>
    <trip id="74" depart="7.40" from="76443747#2" to="76441531#6" via="-76445041#8" departSpeed="max"  departPos="random"  type="fastCar"/>
    <trip id="75" depart="7.50" from="76442583#3" to="76441065#0" via="-76442246" departSpeed="max"  departPos="random"  type="fastCar"/>
    <trip id="76" depart="7.60" from="76441694#0" to="76441787#9" via="-76441787#7" departSpeed="max"  departPos="random"  type="fastCar"/>
    <trip id="77" depart="7.70" from="-76442090#1" to="-76441807#1" via="258787159#1" departSpeed="max"  departPos="random"  type="fastCar"/>
    <trip id="78" depart="7.80" from="76445041#0" to="76443156#0" via="-76419221#1" departSpeed="max"  departPos="random"  type="fastCar"/>
    <trip id="79" depart="7.90" from="76441065#2" to="-76441531#6" via="-76441164#0" departSpeed="max"  departPos="random"  type="fastCar"/>
    <trip id="80" depart="8.00" from="76441385#1" to="76441531#6" via="-76443355#3" departSpeed="max"  departPos="random"  type="fastCar"/>
    <trip id="81" depart="8.10" from="--69740" to="-76419221#2" via="-361431608#3" departSpeed="max"  departPos="random"  type="fastCar"/>
    <trip id="82" depart="8.20" from="-76443372#7" to="-76419221#2" via="-76441531#3" departSpeed="max"  departPos="random"  type="fastCar"/>
    <trip id="83" depart="8.30" from="76443176#3" to="-76441065#0" via="-76443382" departSpeed="max"  departPos="random"  type="fastCar"/>
    <trip id="84" depart="8.40" from="76441958#5" to="-258787159#2" via="76443372#0" departSpeed="max"  departPos="random"  type="fastCar"/>
    <trip id="85" depart="8.50" from="-76442648#2" to="-76441531#6" via="-76441437#3" departSpeed="max"  departPos="random"  type="fastCar"/>
    <trip id="86" depart="8.60" from="-76442079#0" to="76441787#9" via="-76441531#1" departSpeed="max"  departPos="random"  type="fastCar"/>
    <trip id="87" depart="8.70" from="-76445041#8" to="-76441065#0" via="76441164#7" departSpeed="max"  departPos="random"  type="fastCar"/>
    <trip id="88" depart="8.80" from="-362066956#1" to="76441807#1" via="76443031#0" departSpeed="max"  departPos="random"  type="fastCar"/>
    <trip id="89" depart="8.90" from="305807458#0" to="76441065#0" via="362066956#3" departSpeed="max"  departPos="random"  type="fastCar"/>
    <trip id="90" depart="9.00" from="-76441385#3" to="-258787159#2" via="76445041#3" departSpeed="max"  departPos="random"  type="fastCar"/>
    <trip id="91" depart="9.10" from="76441531#4" to="-76443156#0" via="76441531#5" departSpeed="max"  departPos="random"  type="fastCar"/>
    <trip id="92" depart="9.20" from="76441164#4" to="-76441531#6" via="-321748518" departSpeed="max"  departPos="random"  type="fastCar"/>
    <trip id="93" depart="9.30" from="-76442079#3" to="76419221#2" via="76443355#0" departSpeed="max"  departPos="random"  type="fastCar"/>
    <trip id="94" depart="9.40" from="-76441531#6" to="-76441531#6" via="-305807458#0" departSpeed="max"  departPos="random"  type="fastCar"/>
    <trip id="95" depart="9.50" from="-76443355#3" to="-76441065#0" via="-76443747#1" departSpeed="max"  departPos="random"  type="fastCar"/>
    <trip id="96" depart="9.60" from="76441202#1" to="-258787159#2" via="-76442471#2" departSpeed="max"  departPos="random"  type="fastCar"/>
    <trip id="97" depart="9.70" from="76445041#7" to="-76441787#9" via="-76442471#0" departSpeed="max"  departPos="random"  type="fastCar"/>
    <trip id="98" depart="9.80" from="76441495#1" to="76441807#1" via="-76442079#0" departSpeed="max"  departPos="random"  type="fastCar"/>
    <trip id="99" depart="9.90" from="76443031#2" to="-321748518" via="76442079#5" departSpeed="max"  departPos="random"  type="fastCar"/>
    <trip id="100" depart="10.00" from="-76442079#1" to="-76441807#1" via="76441787#2" departSpeed="max"  departPos="random"  type="fastCar"/>
    <trip id="101" depart="10.10" from="-76443156#1" to="258787159#4" via="76443031#2" departSpeed="max"  departPos="random"  type="fastCar"/>
    <trip id="102" depart="10.20" from="362066956#1" to="-76441807#1" via="362066955#1" departSpeed="max"  departPos="random"  type="fastCar"/>
    <trip id="103" depart="10.30" from="76441787#2" to="-76443156#0" via="258787159#1" departSpeed="max"  departPos="random"  type="fastCar"/>
    <trip id="104" depart="10.40" from="-76441958#0" to="-258787159#2" via="76442471#3" departSpeed="max"  departPos="random"  type="fastCar"/>
    <trip id="105" depart="10.50" from="-76442079#0" to="-321748518" via="76443176#3" departSpeed="max"  departPos="random"  type="fastCar"/>
    <trip id="106" depart="10.60" from="-76441787#6" to="-258787159#2" via="76419487" departSpeed="max"  departPos="random"  type="fastCar"/>
    <trip id="107" depart="10.70" from="-76442648#0" to="-76443156#0" via="-76441531#1" departSpeed="max"  departPos="random"  type="fastCar"/>
    <trip id="108" depart="10.80" from="-76441495#0" to="-76441787#9" via="-76441531#4" departSpeed="max"  departPos="random"  type="fastCar"/>
    <trip id="109" depart="10.90" from="76441437#4" to="-321748518" via="76442471#0" departSpeed="max"  departPos="random"  type="fastCar"/>
    <trip id="110" depart="11.00" from="-76441437#3" to="258787159#4" via="76441141#3" departSpeed="max"  departPos="random"  type="fastCar"/>
    <trip id="111" depart="11.10" from="362066955#4" to="-76441787#9" via="76443747#1" departSpeed="max"  departPos="random"  type="fastCar"/>
    <trip id="112" depart="11.20" from="-76442079#2" to="76419221#2" via="-76441164#8" departSpeed="max"  departPos="random"  type="fastCar"/>
    <trip id="113" depart="11.30" from="76441787#6" to="-76441787#9" via="-76442648#1" departSpeed="max"  departPos="random"  type="fastCar"/>
    <trip id="114" depart="11.40" from="-76441531#6" to="-76441807#1" via="76443372#0" departSpeed="max"  departPos="random"  type="fastCar"/>
    <trip id="115" depart="11.50" from="76443355#3" to="76441065#2" via="76443176#1" departSpeed="max"  departPos="random"  type="fastCar"/>
    <trip id="116" depart="11.60" from="-76441437#2" to="-76443156#0" via="76441958#1" departSpeed="max"  departPos="random"  type="fastCar"/>
    <trip id="117" depart="11.70" from="76442648#1" to="76441531#6" via="-76443156#0" departSpeed="max"  departPos="random"  type="fastCar"/>
    <trip id="118" depart="11.80" from="-76445041#6" to="-76419221#2" via="76441495#2" departSpeed="max"  departPos="random"  type="fastCar"/>
    <trip id="119" depart="11.90" from="-76443355#3" to="-76441531#6" via="-76443355#0" departSpeed="max"  departPos="random"  type="fastCar"/>
    <trip id="120" depart="12.00" from="76441202#1" to="76441531#6" via="-76442090#2" departSpeed="max"  departPos="random"  type="fastCar"/>
    <trip id="121" depart="12.10" from="-76441694#0" to="76441065#0" via="-76441437#0" departSpeed="max"  departPos="random"  type="fastCar"/>
    <trip id="122" depart="12.20" from="76442090#1" to="-321748518" via="76441385#2" departSpeed="max"  departPos="random"  type="fastCar"/>
    <trip id="123" depart="12.30" from="-361431608#4" to="76441065#2" via="-76443156#2" departSpeed="max"  departPos="random"  type="fastCar"/>
    <trip id="124" depart="12.40" from="--69740" to="76441065#0" via="76441385#3" departSpeed="max"  departPos="random"  type="fastCar"/>
    <trip id="125" depart="12.50" from="-76441531#1" to="-76443156#0" via="-258787159#0" departSpeed="max"  departPos="random"  type="fastCar"/>
    <trip id="126" depart="12.60" from="-76442583#0" to="76441065#2" via="76419487" departSpeed="max"  departPos="random"  type="fastCar"/>
    <trip id="127" depart="12.70" from="-76441437#3" to="76441531#6" via="76441694#2" departSpeed="max"  departPos="random"  type="fastCar"/>
    <trip id="128" depart="12.80" from="362066956#0" to="-76441065#0" via="76442079#4" departSpeed="max"  departPos="random"  type="fastCar"/>
    <trip id="129" depart="12.90" from="-76442583#0" to="-258787159#2" via="76441787#10" departSpeed="max"  departPos="random"  type="fastCar"/>
    <trip id="130" depart="13.00" from="76441437#3" to="76419221#2" via="76441437#4" departSpeed="max"  departPos="random"  type="fastCar"/>
    <trip id="131" depart="13.10" from="-76442090#1" to="76443156#0" via="76441164#8" departSpeed="max"  departPos="random"  type="fastCar"/>
    <trip id="132" depart="13.20" from="76443156#4" to="76441807#1" via="-76441694#1" departSpeed="max"  departPos="random"  type="fastCar"/>
    <trip id="133" depart="13.30" from="361431608#3" to="-76419221#2" via="-362066955#5" departSpeed="max"  departPos="random"  type="fastCar"/>
    <trip id="134" depart="13.40" from="76441531#3" to="76441787#9" via="76443212" departSpeed="max"  departPos="random"  type="fastCar"/>
    <trip id="135" depart="13.50" from="-76442471#4" to="76441787#9" via="76443176#1" departSpeed="max"  departPos="random"  type="fastCar"/>
    <trip id="136" depart="13.60" from="-139108139" to="-258787159#2" via="-76442090#3" departSpeed="max"  departPos="random"  type="fastCar"/>
    <trip id="137" depart="13.70" from="76443156#3" to="76441807#1" via="-152627338#0" departSpeed="max"  departPos="random"  type="fastCar"/>
    <trip id="138" depart="13.80" from="76441787#6" to="-76441065#0" via="76441787#1" departSpeed="max"  departPos="random"  type="fastCar"/>
    <trip id="139" depart="13.90" from="76441495#2" to="-76441531#6" via="362066955#0" departSpeed="max"  departPos="random"  type="fastCar"/>
    <trip id="140" depart="14.00" from="-76441807#2" to="76441531#6" via="--69738" departSpeed="max"  departPos="random"  type="fastCar"/>
    <trip id="141" depart="14.10" from="-76441531#5" to="76419221#2" via="-76442090#2" departSpeed="max"  departPos="random"  type="fastCar"/>
    <trip id="142" depart="14.20" from="76445041#0" to="258787159#4" via="76445041#5" departSpeed="max"  departPos="random"  type="fastCar"/>
    <trip id="143" depart="14.30" from="305807458#2" to="76441065#0" via="-76442246" departSpeed="max"  departPos="random"  type="fastCar"/>
    <trip id="144" depart="14.40" from="76442471#0" to="76441807#1" via="-258787159#5" departSpeed="max"  departPos="random"  type="fastCar"/>
    <trip id="145" depart="14.50" from="-76441164#6" to="-76441531#6" via="-152627338#1" departSpeed="max"  departPos="random"  type="fastCar"/>
    <trip id="146" depart="14.60" from="76442471#1" to="-76443156#0" via="-76441067#3" departSpeed="max"  departPos="random"  type="fastCar"/>
    <trip id="147" depart="14.70" from="-76441531#1" to="-76441807#1" via="76419487" departSpeed="max"  departPos="random"  type="fastCar"/>
    <trip id="148" depart="14.80" from="76441164#2" to="76441065#0" via="-76442471#3" departSpeed="max"  departPos="random"  type="fastCar"/>
    <trip id="149" depart="14.90" from="76441694#1" to="76441787#9" via="-76443156#0" departSpeed="max"  departPos="random"  type="fastCar"/>
    <trip id="150" depart="15.00" from="-76441067#3" to="76419221#2" via="-76441787#5" departSpeed="max"  departPos="random"  type="fastCar"/>
    <trip id="151" depart="15.10" from="-76441787#8" to="-76443156#0" via="76443372#1" departSpeed="max"  departPos="random"  type="fastCar"/>
    <trip id="152" depart="15.20" from="-321748518" to="-76441807#1" via="-76442079#5" departSpeed="max"  departPos="random"  type="fastCar"/>
    <trip id="153" depart="15.30" from="76443372#8" to="-76441065#0" via="76443372#3" departSpeed="max"  departPos="random"  type="fastCar"/>
    <trip id="154" depart="15.40" from="-305807458#2" to="76441065#0" via="76441787#3" departSpeed="max"  departPos="random"  type="fastCar"/>
    <trip id="155" depart="15.50" from="-76441067#2" to="76441787#9" via="362066956#3" departSpeed="max"  departPos="random"  type="fastCar"/>
    <trip id="156" depart="15.60" from="-76442471#1" to="76443156#0" via="-76445041#5" departSpeed="max"  departPos="random"  type="fastCar"/>
    <trip id="157" depart="15.70" from="76445041#4" to="-321748518" via="-362066955#1" departSpeed="max"  departPos="random"  type="fastCar"/>
    <trip id="158" depart="15.80" from="-76443372#8" to="76441807#1" via="362066955#5" departSpeed="max"  departPos="random"  type="fastCar"/>
    <trip id="159" depart="15.90" from="76441065#1" to="76441787#9" via="-76445041#0" departSpeed="max"  departPos="random"  type="fastCar"/>
    <trip id="160" depart="16.00" from="-361431608#0" to="-321748518" via="76441385#1" departSpeed="max"  departPos="random"  type="fastCar"/>
    <trip id="161" depart="16.10" from="76441958#4" to="-258787159#2" via="76443176#3" departSpeed="max"  departPos="random"  type="fastCar"/>
    <trip id="162" depart="16.20" from="-76443355#3" to="76441807#1" via="76441787#1" departSpeed="max"  departPos="random"  type="fastCar"/>
    <trip id="163" depart="16.30" from="76443382" to="76441065#0" via="76441787#6" departSpeed="max"  departPos="random"  type="fastCar"/>
    <trip id="164" depart="16.40" from="-76443355#3" to="-76441531#6" via="76443372#0" departSpeed="max"  departPos="random"  type="fastCar"/>
    <trip id="165" depart="16.50" from="305807458#1" to="76441065#0" via="76442471#1" departSpeed="max"  departPos="random"  type="fastCar"/>
    <trip id="166" depart="16.60" from="76441437#4" to="76441787#9" via="-76441065#1" departSpeed="max"  departPos="random"  type="fastCar"/>
    <trip id="167" depart="16.70" from="-76442481" to="-76441787#9" via="-76441164#3" departSpeed="max"  departPos="random"  type="fastCar"/>
    <trip id="168" depart="16.80" from="-76442079#0" to="76419221#2" via="-76441787#2" departSpeed="max"  departPos="random"  type="fastCar"/>
    <trip id="169" depart="16.90" from="-76441694#2" to="76441787#9" via="76441164#0" departSpeed="max"  departPos="random"  type="fastCar"/>
    <trip id="170" depart="17.00" from="-76441787#9" to="-76441531#6" via="76441787#4" departSpeed="max"  departPos="random"  type="fastCar"/>
    <trip id="171" depart="17.10" from="-76441531#2" to="76419221#2" via="76441495#2" departSpeed="max"  departPos="random"  type="fastCar"/>
    <trip id="172" depart="17.20" from="361431608#3" to="-76441807#1" via="-362066956#2" departSpeed="max"  departPos="random"  type="fastCar"/>
    <trip id="173" depart="17.30" from="-76441958#2" to="-76441807#1" via="362066956#0" departSpeed="max"  departPos="random"  type="fastCar"/>
    <trip id="174" depart="17.40" from="-76441164#8" to="76441807#1" via="-362066956#0" departSpeed="max"  departPos="random"  type="fastCar"/>
    <trip id="175" depart="17.50" from="-76441694#0" to="-321748518" via="76441495#2" departSpeed="max"  departPos="random"  type="fastCar"/>
    <trip id="176" depart="17.60" from="-152627338#1" to="-76443156#0" via="-76441164#4" departSpeed="max"  departPos="random"  type="fastCar"/>
    <trip id="177" depart="17.70" from="76441817" to="76441807#1" via="76441958#3" departSpeed="max"  departPos="random"  type="fastCar"/>
    <trip id="178" depart="17.80" from="-76441437#2" to="76419221#2" via="362066955#2" departSpeed="max"  departPos="random"  type="fastCar"/>
    <trip id="179" depart="17.90" from="-305807458#2" to="76441065#0" via="76443355#2" departSpeed="max"  departPos="random"  type="fastCar"/>
    <trip id="180" depart="18.00" from="-258787159#2" to="258787159#4" via="76441141#0" departSpeed="max"  departPos="random"  type="fastCar"/>
    <trip id="181" depart="18.10" from="76441694#2" to="76441065#2" via="--69740" departSpeed="max"  departPos="random"  type="fastCar"/>
    <trip id="182" depart="18.20" from="362066955#0" to="76441807#1" via="-76441065#1" departSpeed="max"  departPos="random"  type="fastCar"/>
    <trip id="183" depart="18.30" from="-361431608#2" to="-76443156#0" via="76445041#2" departSpeed="max"  departPos="random"  type="fastCar"/>
    <trip id="184" depart="18.40" from="76441164#5" to="76443156#0" via="-76443747#2" departSpeed="max"  departPos="random"  type="fastCar"/>
    <trip id="185" depart="18.50" from="152627338#0" to="76441065#2" via="76441787#8" departSpeed="max"  departPos="random"  type="fastCar"/>
    <trip id="186" depart="18.60" from="-76443372#5" to="76419221#2" via="-76441437#3" departSpeed="max"  departPos="random"  type="fastCar"/>
    <trip id="187" depart="18.70" from="76445041#4" to="76441807#1" via="-76443372#3" departSpeed="max"  departPos="random"  type="fastCar"/>
    <trip id="188" depart="18.80" from="-76441065#0" to="-76441787#9" via="-76445041#2" departSpeed="max"  departPos="random"  type="fastCar"/>
    <trip id="189" depart="18.90" from="-76441694#2" to="-76443156#0" via="-258787159#1" departSpeed="max"  departPos="random"  type="fastCar"/>
    <trip id="190" depart="19.00" from="76443372#1" to="258787159#4" via="-76441531#1" departSpeed="max"  departPos="random"  type="fastCar"/>
    <trip id="191" depart="19.10" from="76443156#2" to="-76443156#0" via="362066956#3" departSpeed="max"  departPos="random"  type="fastCar"/>
    <trip id="192" depart="19.20" from="-362066955#0" to="-76441807#1" via="76419221#2" departSpeed="max"  departPos="random"  type="fastCar"/>
    <trip id="193" depart="19.30" from="76443747#1" to="76441787#9" via="-76442246" departSpeed="max"  departPos="random"  type="fastCar"/>
    <trip id="194" depart="19.40" from="76443372#4" to="-76441531#6" via="-76442471#0" departSpeed="max"  departPos="random"  type="fastCar"/>
    <trip id="195" depart="19.50" from="-76441787#10" to="258787159#4" via="152627338#0" departSpeed="max"  departPos="random"  type="fastCar"/>
    <trip id="196" depart="19.60" from="76441787#6" to="-76419221#2" via="-76441694#1" departSpeed="max"  departPos="random"  type="fastCar"/>
    <trip id="197" depart="19.70" from="-76443747#0" to="-321748518" via="-362066956#4" departSpeed="max"  departPos="random"  type="fastCar"/>
    <trip id="198" depart="19.80" from="258787159#5" to="-76419221#2" via="-76442079#4" departSpeed="max"  departPos="random"  type="fastCar"/>
    <trip id="199" depart="19.90" from="76443156#0" to="-76441807#1" via="76442648#0" departSpeed="max"  departPos="random"  type="fastCar"/>
    <trip id="200" depart="20.00" from="-76443355#1" to="-76441531#6" via="76441164#4" departSpeed="max"  departPos="random"  type="fastCar"/>
    <trip id="201" depart="20.10" from="-76441787#10" to="-76419221#2" via="-76419221#1" departSpeed="max"  departPos="random"  type="fastCar"/>
    <trip id="202" depart="20.20" from="-76441958#1" to="76441787#9" via="-305807458#1" departSpeed="max"  departPos="random"  type="fastCar"/>
    <trip id="203" depart="20.30" from="-76442090#3" to="76441787#9" via="76441141#1" departSpeed="max"  departPos="random"  type="fastCar"/>
    <trip id="204" depart="20.40" from="76443355#0" to="76441787#9" via="76443031#0" departSpeed="max"  departPos="random"  type="fastCar"/>
    <trip id="205" depart="20.50" from="76441787#8" to="76419221#2" via="76443031#0" departSpeed="max"  departPos="random"  type="fastCar"/>
    <trip id="206" depart="20.60" from="76419221#2" to="-76419221#2" via="-76441164#6" departSpeed="max"  departPos="random"  type="fastCar"/>
    <trip id="207" depart="20.70" from="-76442471#3" to="76441531#6" via="361431608#0" departSpeed="max"  departPos="random"  type="fastCar"/>