<?xml version="1.0" encoding="UTF-8"?>

<!-- generated on Fri Feb 10 15:03:47 2017 by SUMO polyconvert Version 0.25.0D
<?xml version="1.0" encoding="UTF-8"?>

<configuration xmlns:xsi="http://www.w3.org/2001/XMLSchema-instance" xsi:noNamespaceSchemaLocation="http://sumo.dlr.de/xsd/polyconvertConfiguration.xsd">

    <input>
        <net-file value="ottawa.450.roads.xml"/>
        <osm-files value="ottawa.450.clean.osm"/>
        <type-file value="typemap.xml"/>
    </input>

    <output>
        <output-file value="ottawa.450.poly.xml"/>
    </output>

    <processing>
        <ignore-errors value="true"/>
        <poi-layer-offset value="5"/>
    </processing>

</configuration>
-->

<additional xmlns:xsi="http://www.w3.org/2001/XMLSchema-instance" xsi:noNamespaceSchemaLocation="http://sumo.dlr.de/xsd/additional_file.xsd">
    <location netOffset="-446157.81,-5029884.95" convBoundary="-1599.59,-3961.75,2873.50,2684.14" origBoundary="-75.708590,45.384680,-75.651687,45.444680" projParameter="+proj=utm +zone=18 +ellps=WGS84 +datum=WGS84 +units=m +no_defs"/>

    <poly id="-39496" type="parking" color="184,184,179" fill="1" layer="0.00" shape="107.06,1119.61 116.88,1102.46 191.98,1145.18 182.16,1162.33 107.06,1119.61"/>
    <poly id="-39498" type="parking" color="184,184,179" fill="1" layer="0.00" shape="590.29,1050.76 606.54,1024.91 598.49,1019.88 582.23,1045.72 590.29,1050.76"/>
    <poly id="-39500" type="parking" color="184,184,179" fill="1" layer="0.00" shape="487.58,975.78 496.79,960.17 489.14,955.69 479.93,971.29 487.58,975.78"/>
    <poly id="-39502" type="parking" color="184,184,179" fill="1" layer="0.00" shape="632.36,1163.62 643.36,1146.84 631.60,1139.18 620.60,1155.96 632.36,1163.62"/>
    <poly id="-39504" type="parking" color="184,184,179" fill="1" layer="0.00" shape="685.88,978.27 698.71,956.87 703.62,959.80 690.79,981.19 685.88,978.27"/>
    <poly id="-39506" type="parking" color="184,184,179" fill="1" layer="0.00" shape="959.14,1319.62 941.14,1309.26 931.36,1303.62 946.72,1277.15 974.49,1293.15 959.14,1319.62"/>
    <poly id="-39508" type="parking" color="184,184,179" fill="1" layer="0.00" shape="412.24,987.34 422.13,970.86 382.76,947.38 376.18,958.35 406.91,976.68 403.60,982.19 412.24,987.34"/>
    <poly id="-39510" type="parking" color="184,184,179" fill="1" layer="0.00" shape="438.46,1028.62 413.66,1014.45 417.72,1007.38 442.52,1021.55 438.46,1028.62"/>
    <poly id="-39512" type="parking" color="184,184,179" fill="1" layer="0.00" shape="324.97,920.48 279.51,893.79 277.53,897.14 273.93,895.02 266.81,907.06 270.89,909.46 268.03,914.30 274.90,918.33 281.88,906.52 319.99,928.91 324.97,920.48"/>
    <poly id="-39514" type="parking" color="184,184,179" fill="1" layer="0.00" shape="364.22,1106.34 413.22,1134.62 410.56,1139.21 361.55,1110.94 364.22,1106.34"/>
    <poly id="-39516" type="parking" color="184,184,179" fill="1" layer="0.00" shape="931.88,-10.05 942.03,-27.73 915.93,-42.60 901.92,-18.17 914.55,-10.98 918.33,-14.59 922.75,-15.11 931.88,-10.05"/>
    <poly id="-39518" type="parking" color="184,184,179" fill="1" layer="0.00" shape="954.49,-17.69 986.18,-72.41 976.96,-77.72 945.27,-23.00 954.49,-17.69"/>
    <poly id="-39520" type="parking" color="184,184,179" fill="1" layer="0.00" shape="377.36,1200.04 390.01,1178.07 405.12,1186.72 393.78,1206.37 389.43,1203.88 388.09,1206.19 377.36,1200.04"/>
    <poly id="-39522" type="parking" color="184,184,179" fill="1" layer="0.00" shape="210.77,1449.70 215.21,1442.43 198.35,1432.21 193.90,1439.48 210.77,1449.70"/>
    <poly id="-39524" type="parking" color="184,184,179" fill="1" layer="0.00" shape="123.82,1453.19 137.63,1460.68 144.05,1448.92 130.25,1441.44 124.71,1451.57 123.82,1453.19"/>
    <poly id="-39526" type="parking" color="184,184,179" fill="1" layer="0.00" shape="317.19,977.43 331.60,984.99 336.44,975.83 322.03,968.27 317.19,977.43"/>
    <poly id="-39528" type="parking" color="184,184,179" fill="1" layer="0.00" shape="316.82,970.73 338.19,934.79 327.49,928.47 306.12,964.41 316.82,970.73"/>
    <poly id="-39530" type="parking" color="184,184,179" fill="1" layer="0.00" shape="566.54,28.78 604.42,49.72 621.67,18.74 608.28,11.35 616.66,-3.70 558.92,-35.62 544.87,-10.38 556.15,-4.14 561.82,-14.35 583.78,-2.20 566.54,28.78"/>
    <poly id="-39532" type="parking" color="184,184,179" fill="1" layer="0.00" shape="291.37,599.96 257.16,580.42 283.32,534.94 292.22,540.02 283.26,555.59 290.75,559.87 288.72,563.42 305.56,573.04 312.20,561.49 316.42,563.90 304.80,584.11 301.55,582.26 291.37,599.96"/>
    <poly id="-39534" type="parking" color="184,184,179" fill="1" layer="0.00" shape="400.55,511.97 428.12,461.73 406.01,449.68 378.44,499.92 400.55,511.97"/>
    <poly id="-39536" type="parking" color="184,184,179" fill="1" layer="0.00" shape="703.57,17.60 688.31,8.55 691.77,2.75 684.61,-1.49 690.53,-11.40 712.95,1.87 703.57,17.60"/>
    <poly id="-39538" type="parking" color="184,184,179" fill="1" layer="0.00" shape="624.26,1125.12 637.89,1098.93 622.98,1091.23 609.34,1117.41 624.26,1125.12"/>
    <poly id="-39540" type="unknown" color="51,128,255" fill="0" layer="-1.00" shape="238.65,1666.80 257.18,1635.68 272.46,1644.65 254.89,1675.47"/>
    <poly id="-39542" type="parking" color="184,184,179" fill="1" layer="0.00" shape="300.16,1492.29 307.48,1478.66 312.87,1481.52 305.55,1495.16 300.16,1492.29"/>
    <poly id="-39544" type="parking" color="184,184,179" fill="1" layer="0.00" shape="313.61,560.97 326.86,538.31 349.10,551.23 335.85,573.89 313.61,560.97"/>
    <poly id="-39546" type="parking" color="184,184,179" fill="1" layer="0.00" shape="1042.57,1013.69 1058.48,986.98 1073.50,995.87 1057.59,1022.57 1042.57,1013.69"/>
    <poly id="-39548" type="parking" color="184,184,179" fill="1" layer="0.00" shape="528.39,1103.05 542.74,1079.36 521.25,1066.43 506.90,1090.12 528.39,1103.05"/>
    <poly id="-39550" type="parking" color="184,184,179" fill="1" layer="0.00" shape="502.04,1612.39 530.67,1629.38 535.69,1620.66 540.19,1613.59 511.07,1596.02 506.05,1604.72 502.04,1612.39"/>
    <poly id="-39552" type="parking" color="184,184,179" fill="1" layer="0.00" shape="555.68,1540.04 608.09,1571.52 617.41,1555.44 579.79,1532.87 582.78,1527.22 571.06,1520.68 567.03,1528.17 555.68,1540.04"/>
    <poly id="-39554" type="parking" color="184,184,179" fill="1" layer="0.00" shape="525.89,973.36 535.73,958.36 539.43,960.79 529.59,975.77 525.89,973.36"/>
    <poly id="-39556" type="parking" color="184,184,179" fill="1" layer="0.00" shape="875.36,1363.68 888.67,1340.40 860.75,1324.56 845.04,1352.07 866.48,1364.23 868.89,1360.01 875.36,1363.68"/>
    <poly id="-39558" type="parking" color="184,184,179" fill="1" layer="0.00" shape="696.17,764.06 681.94,756.71 700.06,721.89 707.17,725.56 695.92,747.17 703.04,750.85 696.17,764.06"/>
    <poly id="-39560" type="parking" color="184,184,179" fill="1" layer="0.00" shape="616.92,728.51 573.00,702.15 582.08,687.13 625.99,713.48 616.92,728.51"/>
    <poly id="-39562" type="parking" color="184,184,179" fill="1" layer="0.00" shape="592.42,145.07 606.54,120.68 589.90,111.12 592.17,107.20 596.42,109.64 612.91,81.17 607.21,77.90 574.33,134.68 592.42,145.07"/>
    <poly id="-39564" type="parking" color="184,184,179" fill="1" layer="0.00" shape="575.04,733.75 548.81,719.36 559.97,699.15 586.20,713.53 575.04,733.75"/>
    <poly id="-39566" type="parking" color="184,184,179" fill="1" layer="0.00" shape="538.27,574.89 513.25,559.74 521.56,546.11 546.57,561.28 538.27,574.89"/>
    <poly id="-39568" type="parking" color="184,184,179" fill="1" layer="0.00" shape="547.56,553.16 568.63,518.58 572.56,520.96 551.49,555.54 547.56,553.16"/>
    <poly id="-39570" type="parking" color="184,184,179" fill="1" layer="0.00" shape="994.65,1422.49 1002.00,1408.91 990.62,1402.81 983.28,1416.40 994.65,1422.49"/>
    <poly id="-39572" type="parking" color="184,184,179" fill="1" layer="0.00" shape="1001.05,1448.29 986.12,1439.90 991.39,1430.58 1006.32,1438.98 1001.05,1448.29"/>
    <poly id="-39574" type="parking" color="184,184,179" fill="1" layer="0.00" shape="159.58,1604.07 216.64,1520.17 241.08,1536.04 177.92,1627.27 159.58,1604.07"/>
    <poly id="-39576" type="parking" color="184,184,179" fill="1" layer="0.00" shape="871.42,1267.81 887.75,1239.44 879.42,1234.17 866.27,1255.20 871.86,1258.39 866.88,1265.54 871.42,1267.81"/>
    <poly id="-39578" type="parking" color="184,184,179" fill="1" layer="0.00" shape="836.43,279.45 847.50,286.32 877.70,237.97 856.88,225.05 841.89,249.03 851.65,255.08 848.84,259.58 836.43,279.45"/>
    <poly id="-39580" type="parking" color="184,184,179" fill="1" layer="0.00" shape="353.68,564.12 380.47,579.90 367.23,602.81 340.24,586.83 353.68,564.12"/>
    <poly id="-39582" type="parking" color="184,184,179" fill="1" layer="0.00" shape="279.59,1693.18 284.81,1686.06 293.79,1669.00 294.93,1659.70 273.73,1647.74 275.73,1643.68 248.82,1627.95 235.43,1651.10 241.14,1654.29 237.14,1661.40 260.17,1674.35 261.97,1670.69 269.92,1675.47 264.53,1686.43 279.59,1693.18"/>
    <poly id="-39584" type="parking" color="184,184,179" fill="1" layer="0.00" shape="783.77,689.16 791.44,676.30 768.54,662.74 760.87,675.59 783.77,689.16"/>
    <poly id="-39586" type="parking" color="184,184,179" fill="1" layer="0.00" shape="319.40,1026.25 293.23,1011.10 300.01,999.45 326.19,1014.62 319.40,1026.25"/>
    <poly id="-39588" type="parking" color="184,184,179" fill="1" layer="0.00" shape="613.83,472.38 631.16,443.30 647.97,453.25 630.63,482.33 613.83,472.38"/>
    <poly id="-39590" type="parking" color="184,184,179" fill="1" layer="0.00" shape="271.67,1094.26 218.46,1063.69 226.00,1050.64 238.16,1057.64 245.33,1045.25 240.16,1042.27 262.99,1002.81 271.67,1007.79 255.15,1036.36 268.28,1043.91 265.08,1049.43 289.49,1063.47 271.67,1094.26"/>
    <poly id="-39592" type="parking" color="184,184,179" fill="1" layer="0.00" shape="1021.62,960.08 1034.91,936.67 1057.50,949.42 1044.21,972.82 1021.62,960.08"/>
    <poly id="-39594" type="parking" color="184,184,179" fill="1" layer="0.00" shape="550.68,606.65 556.30,596.34 558.65,597.60 563.12,589.39 568.84,592.49 558.74,611.01 550.68,606.65"/>
    <poly id="-39596" type="amenity" color="255,230,230" fill="1" layer="-8.00" shape="291.17,1060.51 297.87,1064.38 300.59,1059.70 293.88,1055.83 291.17,1060.51"/>
    <poly id="-39596#1" type="building" color="242,191,191" fill="1" layer="-7.00" shape="291.17,1060.51 297.87,1064.38 300.59,1059.70 293.88,1055.83 291.17,1060.51"/>
    <poly id="-39598" type="building" color="242,191,191" fill="1" layer="-7.00" shape="327.01,616.96 332.50,607.26 341.70,612.44 336.20,622.14 327.01,616.96"/>
    <poly id="-39600" type="amenity" color="255,230,230" fill="1" layer="-8.00" shape="1258.05,589.85 1241.43,580.31 1247.95,569.03 1260.51,576.25 1257.07,582.21 1261.13,584.54 1258.05,589.85"/>
    <poly id="-39600#1" type="building" color="242,191,191" fill="1" layer="-7.00" shape="1258.05,589.85 1241.43,580.31 1247.95,569.03 1260.51,576.25 1257.07,582.21 1261.13,584.54 1258.05,589.85"/>
    <poly id="-39602" type="amenity" color="255,230,230" fill="1" layer="-8.00" shape="1268.61,571.40 1271.46,566.75 1266.31,563.61 1267.56,561.57 1263.13,558.86 1259.03,565.53 1249.47,559.68 1246.75,564.11 1262.17,573.52 1264.87,569.12 1268.61,571.40"/>
    <poly id="-39602#1" type="building" color="242,191,191" fill="1" layer="-7.00" shape="1268.61,571.40 1271.46,566.75 1266.31,563.61 1267.56,561.57 1263.13,558.86 1259.03,565.53 1249.47,559.68 1246.75,564.11 1262.17,573.52 1264.87,569.12 1268.61,571.40"/>
    <poly id="-39604" type="building" color="242,191,191" fill="1" layer="-7.00" shape="204.42,1427.00 209.36,1430.01 215.32,1419.97 210.11,1417.26 204.42,1427.00"/>
    <poly id="-39606" type="building" color="242,191,191" fill="1" layer="-7.00" shape="456.07,1014.88 426.31,998.28 433.65,985.21 438.01,987.63 439.05,985.79 448.84,991.26 447.82,993.08 453.40,996.19 454.39,994.44 464.41,1000.03 456.07,1014.88"/>
    <poly id="-39608" type="building" color="242,191,191" fill="1" layer="-7.00" shape="1147.74,119.25 1153.33,109.26 1163.87,115.12 1158.27,125.11 1147.74,119.25"/>
    <poly id="-39610" type="building" color="242,191,191" fill="1" layer="-7.00" shape="724.32,1212.73 734.36,1218.81 744.08,1202.86 734.04,1196.78 724.32,1212.73"/>
    <poly id="-39612" type="building" color="242,191,191" fill="1" layer="-7.00" shape="1161.37,97.34 1165.90,89.70 1175.71,95.48 1170.37,104.48 1163.79,100.60 1164.59,99.24 1161.37,97.34"/>
    <poly id="-39614" type="building" color="242,191,191" fill="1" layer="-7.00" shape="911.06,942.87 918.62,930.37 899.64,919.24 891.67,932.06 911.06,942.87"/>
    <poly id="-39616" type="building" color="242,191,191" fill="1" layer="-7.00" shape="1139.56,133.03 1145.38,123.11 1156.24,129.43 1150.43,139.35 1139.56,133.03"/>
    <poly id="-39618" type="building" color="242,191,191" fill="1" layer="-7.00" shape="193.25,1420.73 192.41,1422.21 203.57,1428.51 204.42,1427.00 209.19,1418.61 198.05,1412.31 193.25,1420.73"/>
    <poly id="-39620" type="building" color="242,191,191" fill="1" layer="-7.00" shape="564.34,1027.42 543.32,1015.50 552.71,999.07 573.72,1011.00 564.34,1027.42"/>
    <poly id="-39622" type="building" color="242,191,191" fill="1" layer="-7.00" shape="1430.43,192.23 1435.46,183.76 1447.33,190.76 1442.31,199.22 1430.43,192.23"/>
    <poly id="-39624" type="building" color="242,191,191" fill="1" layer="-7.00" shape="1349.31,173.16 1354.19,165.31 1361.70,169.95 1356.82,177.79 1349.31,173.16"/>
    <poly id="-39626" type="building" color="242,191,191" fill="1" layer="-7.00" shape="63.52,1331.18 66.46,1332.61 66.06,1334.50 70.07,1336.77 83.56,1343.76 116.03,1361.88 109.62,1373.44 91.26,1361.69 89.60,1363.79 76.11,1356.37 56.47,1341.27 63.52,1331.18"/>
    <poly id="-39628" type="building" color="242,191,191" fill="1" layer="-7.00" shape="1364.58,164.92 1372.68,151.70 1365.01,147.03 1356.91,160.25 1364.58,164.92"/>
    <poly id="-39630" type="building" color="242,191,191" fill="1" layer="-7.00" shape="1299.50,119.05 1305.19,109.62 1319.58,118.22 1313.89,127.67 1299.50,119.05"/>
    <poly id="-39632" type="building" color="242,191,191" fill="1" layer="-7.00" shape="1289.39,113.04 1294.98,104.10 1304.25,108.84 1298.45,118.51 1289.39,113.04"/>
    <poly id="-39634" type="building" color="242,191,191" fill="1" layer="-7.00" shape="1218.56,74.04 1225.02,62.88 1276.49,92.48 1268.19,106.81 1259.65,101.91 1261.48,98.73 1218.56,74.04"/>
    <poly id="-39636" type="building" color="242,191,191" fill="1" layer="-7.00" shape="1179.84,91.31 1184.63,83.90 1175.57,79.69 1171.52,85.96 1179.84,91.31"/>
    <poly id="-39638" type="building" color="242,191,191" fill="1" layer="-7.00" shape="267.70,1386.45 274.17,1375.00 269.11,1372.16 270.01,1370.56 275.68,1373.76 282.87,1361.03 277.91,1358.24 276.87,1355.54 270.19,1351.63 269.40,1352.69 266.00,1350.73 266.72,1349.53 261.39,1346.47 260.60,1347.73 255.53,1344.34 255.31,1343.02 249.51,1339.43 248.79,1340.62 242.65,1337.04 234.73,1350.67 266.16,1368.28 265.23,1369.69 259.57,1366.46 253.28,1376.90 256.67,1378.74 255.93,1380.06 267.70,1386.45"/>
    <poly id="-39640" type="building" color="242,191,191" fill="1" layer="-7.00" shape="183.67,1232.34 190.68,1220.98 200.03,1226.71 204.39,1219.65 191.45,1211.72 190.33,1213.52 173.84,1203.41 174.75,1201.93 169.12,1198.48 164.69,1205.65 164.66,1207.10 162.81,1210.48 161.12,1210.78 157.61,1216.89 160.35,1218.56 159.51,1219.97 180.75,1232.04 181.39,1230.91 183.67,1232.34"/>
    <poly id="-39642" type="building" color="242,191,191" fill="1" layer="-7.00" shape="172.28,1408.13 193.25,1420.73 198.05,1412.31 199.01,1411.22 178.04,1398.62 172.28,1408.13"/>
    <poly id="-39644" type="building" color="242,191,191" fill="1" layer="-7.00" shape="661.83,1276.25 610.97,1246.65 614.77,1239.83 613.71,1239.21 636.14,1201.49 638.14,1202.58 640.88,1197.67 672.59,1216.08 661.03,1236.08 656.07,1233.40 663.31,1220.80 643.38,1208.94 623.84,1242.46 666.63,1267.68 661.83,1276.25"/>
    <poly id="-39644#1" type="tourism" color="207,245,201" fill="1" layer="-5.00" shape="661.83,1276.25 610.97,1246.65 614.77,1239.83 613.71,1239.21 636.14,1201.49 638.14,1202.58 640.88,1197.67 672.59,1216.08 661.03,1236.08 656.07,1233.40 663.31,1220.80 643.38,1208.94 623.84,1242.46 666.63,1267.68 661.83,1276.25"/>
    <poly id="-39646" type="amenity" color="255,230,230" fill="1" layer="-8.00" shape="381.99,578.88 370.10,572.06 373.19,566.70 359.59,558.90 374.14,533.73 380.95,537.64 377.53,543.55 391.76,551.71 393.54,548.63 397.85,551.11 395.44,555.29 397.18,556.29 389.68,569.25 388.10,568.33 381.99,578.88"/>
    <poly id="-39646#1" type="building" color="242,191,191" fill="1" layer="-7.00" shape="381.99,578.88 370.10,572.06 373.19,566.70 359.59,558.90 374.14,533.73 380.95,537.64 377.53,543.55 391.76,551.71 393.54,548.63 397.85,551.11 395.44,555.29 397.18,556.29 389.68,569.25 388.10,568.33 381.99,578.88"/>
    <poly id="-39648" type="building" color="242,191,191" fill="1" layer="-7.00" shape="633.52,553.15 646.98,530.30 632.13,521.62 618.68,544.48 633.52,553.15"/>
    <poly id="-39650" type="building" color="242,191,191" fill="1" layer="-7.00" shape="777.06,529.17 781.00,522.34 771.29,516.46 767.26,523.81 777.06,529.17"/>
    <poly id="-39652" type="building" color="242,191,191" fill="1" layer="-7.00" shape="643.77,1361.99 647.62,1355.53 644.76,1353.84 648.19,1348.08 650.89,1349.70 664.35,1327.17 678.53,1335.58 665.24,1357.85 670.83,1361.17 673.62,1356.52 708.62,1377.29 705.52,1382.49 710.74,1385.59 724.92,1361.86 738.68,1370.02 717.73,1405.09 704.01,1396.97 707.21,1391.61 701.84,1388.43 700.22,1391.13 665.26,1370.38 666.46,1368.36 660.85,1365.03 657.71,1370.27 643.77,1361.99"/>
    <poly id="-39654" type="building" color="242,191,191" fill="1" layer="-7.00" shape="371.65,921.00 376.90,911.75 362.24,903.47 356.98,912.73 371.65,921.00"/>
    <poly id="-39656" type="building" color="242,191,191" fill="1" layer="-7.00" shape="87.85,1433.61 101.27,1440.98 106.30,1432.41 93.23,1424.79 87.85,1433.61"/>
    <poly id="-39658" type="building" color="242,191,191" fill="1" layer="-7.00" shape="860.23,1247.72 868.03,1252.36 876.51,1237.88 868.45,1233.27 860.23,1247.72"/>
    <poly id="-39660" type="building" color="242,191,191" fill="1" layer="-7.00" shape="466.83,93.51 462.94,88.36 463.92,86.22 461.26,82.62 471.72,65.06 466.12,43.93 473.88,41.95 480.33,38.20 483.86,42.01 485.56,41.77 491.77,66.31 508.49,74.24 503.29,83.30 508.19,86.09 505.79,89.41 500.64,87.61 498.52,89.55 476.39,77.16 466.83,93.51"/>
    <poly id="-39662" type="building" color="242,191,191" fill="1" layer="-7.00" shape="449.37,121.79 461.14,103.57 439.77,89.85 436.03,96.36 428.89,109.04 428.47,109.72 439.86,116.18 449.37,121.79"/>
    <poly id="-39664" type="building" color="242,191,191" fill="1" layer="-7.00" shape="345.28,364.86 348.37,366.54 347.03,369.09 362.98,378.66 364.84,375.92 368.27,377.77 375.16,365.63 372.07,363.95 374.09,360.36 357.81,351.66 355.61,354.73 352.01,352.90 345.28,364.86"/>
    <poly id="-39666" type="building" color="242,191,191" fill="1" layer="-7.00" shape="786.80,446.65 794.00,434.74 812.14,445.62 809.58,449.85 813.53,452.23 811.48,455.62 807.75,453.39 805.16,457.67 786.80,446.65"/>
    <poly id="-39668" type="building" color="242,191,191" fill="1" layer="-7.00" shape="855.07,1258.53 866.88,1265.54 871.86,1258.39 866.27,1255.20 865.24,1256.98 858.39,1253.17 855.07,1258.53"/>
    <poly id="-39670" type="building" color="242,191,191" fill="1" layer="-7.00" shape="166.12,1406.09 172.60,1395.70 178.04,1398.62 172.28,1408.13 171.68,1409.48 166.12,1406.09"/>
    <poly id="-39672" type="building" color="242,191,191" fill="1" layer="-7.00" shape="926.13,1335.16 930.87,1327.02 934.01,1328.84 942.65,1314.00 956.72,1322.14 943.33,1345.12 926.13,1335.16"/>
    <poly id="-39674" type="building" color="242,191,191" fill="1" layer="-7.00" shape="353.72,911.49 337.29,902.74 342.84,892.37 359.27,901.12 353.72,911.49"/>
    <poly id="-39676" type="building" color="242,191,191" fill="1" layer="-7.00" shape="167.12,868.09 158.06,882.34 188.91,901.15 197.98,886.92 167.12,868.09"/>
    <poly id="-39678" type="building" color="242,191,191" fill="1" layer="-7.00" shape="261.17,911.73 252.83,907.24 238.18,934.20 246.52,938.70 261.17,911.73"/>
    <poly id="-39680" type="building" color="242,191,191" fill="1" layer="-7.00" shape="581.87,1068.95 589.35,1073.22 588.62,1074.50 597.43,1079.52 598.18,1078.23 605.23,1082.24 593.62,1102.43 587.13,1098.73 586.93,1099.08 577.44,1093.66 577.81,1093.03 570.44,1088.83 581.87,1068.95"/>
    <poly id="-39682" type="building" color="242,191,191" fill="1" layer="-7.00" shape="124.19,1392.15 129.81,1382.63 137.62,1387.04 137.81,1389.45 144.24,1392.66 139.81,1400.97 124.19,1392.15"/>
    <poly id="-39684" type="building" color="242,191,191" fill="1" layer="-7.00" shape="1058.84,1380.40 1016.38,1356.76 1004.90,1377.24 1011.06,1380.67 1013.33,1376.61 1018.03,1379.22 1020.91,1374.08 1052.51,1391.69 1058.84,1380.40"/>
    <poly id="-39686" type="building" color="242,191,191" fill="1" layer="-7.00" shape="670.75,1330.22 690.20,1341.72 692.24,1338.30 691.04,1337.59 694.31,1332.11 695.32,1332.71 699.23,1326.14 698.21,1325.54 701.63,1319.80 702.31,1320.22 704.26,1316.94 684.64,1305.34 682.63,1308.71 683.87,1309.43 680.40,1315.26 679.61,1314.79 675.68,1321.40 676.77,1322.06 674.00,1326.71 673.14,1326.21 670.75,1330.22"/>
    <poly id="-39688" type="building" color="242,191,191" fill="1" layer="-7.00" shape="365.18,1217.00 327.05,1194.40 334.81,1181.40 372.94,1204.01 365.18,1217.00"/>
    <poly id="-39690" type="building" color="242,191,191" fill="1" layer="-7.00" shape="620.46,1152.99 596.10,1138.40 607.64,1119.25 630.61,1133.01 629.03,1135.64 630.42,1136.47 620.46,1152.99"/>
    <poly id="-39692" type="building" color="242,191,191" fill="1" layer="-7.00" shape="694.51,1296.83 713.22,1264.67 701.54,1257.92 682.84,1290.07 694.51,1296.83"/>
    <poly id="-39694" type="building" color="242,191,191" fill="1" layer="-7.00" shape="176.52,1136.38 118.97,1102.94 128.22,1087.14 185.76,1120.58 176.52,1136.38"/>
    <poly id="-39696" type="building" color="242,191,191" fill="1" layer="-7.00" shape="642.77,627.05 652.05,633.03 638.62,656.99 629.13,651.84 642.77,627.05"/>
    <poly id="-39698" type="building" color="242,191,191" fill="1" layer="-7.00" shape="756.39,556.46 760.98,548.69 736.62,534.39 732.02,542.18 756.39,556.46"/>
    <poly id="-39700" type="building" color="242,191,191" fill="1" layer="-7.00" shape="581.67,684.53 597.26,693.86 609.50,673.57 593.91,664.22 581.67,684.53"/>
    <poly id="-39702" type="building" color="242,191,191" fill="1" layer="-7.00" shape="655.28,662.63 665.62,644.73 680.03,653.00 669.69,670.90 655.28,662.63"/>
    <poly id="-39704" type="building" color="242,191,191" fill="1" layer="-7.00" shape="559.32,750.41 568.91,734.29 541.96,718.38 532.38,734.51 559.32,750.41"/>
    <poly id="-39706" type="building" color="242,191,191" fill="1" layer="-7.00" shape="998.53,1287.51 1013.71,1261.81 1028.27,1270.34 1014.60,1293.51 1015.16,1293.84 1013.66,1296.39 998.53,1287.51"/>
    <poly id="-39708" type="building" color="242,191,191" fill="1" layer="-7.00" shape="271.42,765.98 282.17,746.82 250.83,729.34 240.08,748.50 271.42,765.98"/>
    <poly id="-39710" type="building" color="242,191,191" fill="1" layer="-7.00" shape="426.65,795.19 439.76,802.65 429.36,820.80 416.25,813.33 426.65,795.19"/>
    <poly id="-39712" type="building" color="242,191,191" fill="1" layer="-7.00" shape="338.08,763.74 346.06,750.27 383.28,772.16 375.30,785.64 338.08,763.74"/>
    <poly id="-39714" type="building" color="242,191,191" fill="1" layer="-7.00" shape="301.21,760.68 317.11,769.95 305.04,790.52 289.13,781.26 301.21,760.68"/>
    <poly id="-39716" type="amenity" color="255,230,230" fill="1" layer="-8.00" shape="878.06,899.69 947.07,932.26 977.46,877.83 915.21,838.10 878.06,899.69"/>
    <poly id="-39718" type="building" color="242,191,191" fill="1" layer="-7.00" shape="273.45,816.05 281.14,803.38 289.32,808.32 287.30,811.65 292.40,814.73 289.51,819.50 285.61,817.14 282.84,821.71 273.45,816.05"/>
    <poly id="-39720" type="building" color="242,191,191" fill="1" layer="-7.00" shape="330.23,801.25 325.20,798.14 331.14,788.63 346.42,798.11 340.55,807.50 336.20,804.80 335.04,806.67 329.13,803.01 330.23,801.25"/>
    <poly id="-39722" type="building" color="242,191,191" fill="1" layer="-7.00" shape="996.78,1425.71 1003.90,1413.66 1033.42,1430.99 1015.58,1461.17 1003.53,1454.10 1014.25,1435.97 996.78,1425.71"/>
    <poly id="-39724" type="building" color="242,191,191" fill="1" layer="-7.00" shape="905.46,1360.44 900.53,1368.34 892.91,1384.41 881.57,1400.58 876.92,1408.36 862.79,1400.11 867.79,1392.25 870.80,1385.69 877.04,1373.85 886.51,1360.83 891.33,1351.57 905.46,1360.44"/>
    <poly id="-39726" type="building" color="242,191,191" fill="1" layer="-7.00" shape="137.98,1484.14 143.68,1487.10 147.55,1479.66 141.85,1476.71 137.98,1484.14"/>
    <poly id="-39728" type="building" color="242,191,191" fill="1" layer="-7.00" shape="142.43,1489.66 152.97,1495.64 153.98,1493.97 159.21,1485.41 162.70,1479.67 151.31,1473.70 142.43,1489.66"/>
    <poly id="-39730" type="building" color="242,191,191" fill="1" layer="-7.00" shape="153.98,1493.97 160.96,1497.46 165.71,1488.63 159.21,1485.41 153.98,1493.97"/>
    <poly id="-39732" type="building" color="242,191,191" fill="1" layer="-7.00" shape="158.62,1500.18 164.08,1503.20 173.06,1487.05 167.60,1484.03 158.62,1500.18"/>
    <poly id="-39734" type="building" color="242,191,191" fill="1" layer="-7.00" shape="163.54,1505.17 171.35,1510.12 178.18,1499.41 182.88,1492.71 173.06,1487.05 163.54,1505.17"/>
    <poly id="-39736" type="building" color="242,191,191" fill="1" layer="-7.00" shape="175.00,1506.99 182.88,1492.71 191.36,1497.36 183.48,1511.64 175.00,1506.99"/>
    <poly id="-39738" type="building" color="242,191,191" fill="1" layer="-7.00" shape="291.67,546.58 308.53,556.73 330.13,521.08 326.48,511.70 318.68,508.38 312.91,505.92 316.50,497.57 302.22,488.97 289.14,510.55 307.00,521.29 291.67,546.58"/>
    <poly id="-39740" type="building" color="242,191,191" fill="1" layer="-7.00" shape="776.31,720.23 784.87,725.82 776.73,738.22 773.11,735.86 774.40,733.91 769.03,731.33 776.31,720.23"/>
    <poly id="-39742" type="building" color="242,191,191" fill="1" layer="-7.00" shape="842.20,639.51 859.69,610.08 873.30,618.12 855.80,647.55 842.20,639.51"/>
    <poly id="-39744" type="building" color="242,191,191" fill="1" layer="-7.00" shape="893.68,632.45 907.39,640.91 886.50,677.49 871.12,669.66 893.68,632.45"/>
    <poly id="-39746" type="building" color="242,191,191" fill="1" layer="-7.00" shape="885.03,514.74 892.56,502.28 869.65,488.54 862.13,501.02 885.03,514.74"/>
    <poly id="-39748" type="building" color="242,191,191" fill="1" layer="-7.00" shape="813.61,512.66 823.40,497.34 815.64,492.41 810.22,500.87 806.06,498.23 811.21,490.17 803.96,485.57 794.43,500.49 813.61,512.66"/>
    <poly id="-39750" type="building" color="242,191,191" fill="1" layer="-7.00" shape="780.01,665.67 787.26,653.79 778.72,648.33 771.26,660.10 780.01,665.67"/>
    <poly id="-39752" type="building" color="242,191,191" fill="1" layer="-7.00" shape="808.84,719.49 816.20,707.24 803.32,699.55 795.96,711.80 808.84,719.49"/>
    <poly id="-39754" type="building" color="242,191,191" fill="1" layer="-7.00" shape="795.80,732.68 804.02,737.21 797.81,748.03 789.27,743.29 795.80,732.68"/>
    <poly id="-39756" type="building" color="242,191,191" fill="1" layer="-7.00" shape="508.97,614.16 522.00,621.60 518.11,628.38 505.08,620.92 508.97,614.16"/>
    <poly id="-39758" type="building" color="242,191,191" fill="1" layer="-7.00" shape="529.50,635.44 537.67,639.86 543.25,629.62 535.08,625.20 529.50,635.44"/>
    <poly id="-39760" type="building" color="242,191,191" fill="1" layer="-7.00" shape="520.27,629.29 528.96,634.21 534.26,624.90 525.58,619.98 520.27,629.29"/>
    <poly id="-39762" type="building" color="242,191,191" fill="1" layer="-7.00" shape="527.04,652.35 532.33,643.49 520.88,636.70 515.59,645.56 527.04,652.35"/>
    <poly id="-39764" type="building" color="242,191,191" fill="1" layer="-7.00" shape="1029.99,1234.93 1041.50,1241.82 1026.88,1266.08 1015.37,1259.20 1029.99,1234.93"/>
    <poly id="-39766" type="building" color="242,191,191" fill="1" layer="-7.00" shape="476.70,471.95 484.70,476.61 485.42,475.37 489.26,477.60 495.64,466.69 483.80,459.80 481.69,463.40 479.71,462.25 476.89,467.07 478.88,468.23 476.70,471.95"/>
    <poly id="-39768" type="building" color="242,191,191" fill="1" layer="-7.00" shape="482.13,500.40 472.66,495.04 474.11,492.52 465.74,487.78 467.41,484.83 469.62,486.09 472.29,481.41 484.33,488.24 483.39,489.89 486.97,491.92 482.13,500.40"/>
    <poly id="-39770" type="building" color="242,191,191" fill="1" layer="-7.00" shape="464.67,312.10 520.18,344.26 613.04,181.74 558.96,150.41 464.67,312.10"/>
    <poly id="-39772" type="building" color="242,191,191" fill="1" layer="-7.00" shape="54.57,1273.92 49.24,1283.02 50.19,1283.57 45.18,1292.13 50.60,1295.28 60.94,1277.62 54.57,1273.92"/>
    <poly id="-39774" type="building" color="242,191,191" fill="1" layer="-7.00" shape="304.93,1504.49 325.06,1516.14 326.14,1520.31 311.77,1544.69 335.70,1558.70 357.11,1522.86 350.41,1498.98 318.67,1480.95 304.93,1504.49"/>
    <poly id="-39776" type="building" color="242,191,191" fill="1" layer="-7.00" shape="361.57,1120.41 364.08,1121.88 365.01,1120.30 399.47,1140.42 398.66,1141.80 401.96,1143.73 400.55,1146.14 408.76,1150.94 404.87,1157.57 402.93,1156.44 402.19,1157.71 395.81,1153.98 394.17,1156.78 357.00,1135.09 357.81,1133.71 354.83,1131.97 356.84,1128.53 355.04,1127.47 358.15,1122.18 359.92,1123.21 361.57,1120.41"/>
    <poly id="-39778" type="building" color="242,191,191" fill="1" layer="-7.00" shape="246.16,612.85 232.78,604.42 240.63,592.04 251.29,598.76 250.07,600.68 252.78,602.39 246.16,612.85"/>